*SPEF "ieee 1481-1999"
*DESIGN "uart_ip_memory_mapped"
*DATE "00:34:33 Thursday March 26, 2026"
*VENDOR "The OpenROAD Project"
*PROGRAM "OpenROAD"
*VERSION "edf00dff99f6c40d67a30c0e22a8191c5d2ed9d6"
*DESIGN_FLOW "NAME_SCOPE LOCAL" "PIN_CAP NONE"
*DIVIDER /
*DELIMITER :
*BUS_DELIMITER []
*T_UNIT 1 NS
*C_UNIT 1 PF
*R_UNIT 1 OHM
*L_UNIT 1 HENRY

*NAME_MAP
*1 arst_n
*2 clk
*3 mem_raddr[0]
*4 mem_raddr[1]
*5 mem_raddr[2]
*6 mem_raddr[3]
*7 mem_raddr[4]
*8 mem_raddr[5]
*9 mem_raddr[6]
*10 mem_raddr[7]
*11 mem_rdata[0]
*12 mem_rdata[10]
*13 mem_rdata[11]
*14 mem_rdata[12]
*15 mem_rdata[13]
*16 mem_rdata[14]
*17 mem_rdata[15]
*18 mem_rdata[16]
*19 mem_rdata[17]
*20 mem_rdata[18]
*21 mem_rdata[19]
*22 mem_rdata[1]
*23 mem_rdata[20]
*24 mem_rdata[21]
*25 mem_rdata[22]
*26 mem_rdata[23]
*27 mem_rdata[24]
*28 mem_rdata[25]
*29 mem_rdata[26]
*30 mem_rdata[27]
*31 mem_rdata[28]
*32 mem_rdata[29]
*33 mem_rdata[2]
*34 mem_rdata[30]
*35 mem_rdata[31]
*36 mem_rdata[3]
*37 mem_rdata[4]
*38 mem_rdata[5]
*39 mem_rdata[6]
*40 mem_rdata[7]
*41 mem_rdata[8]
*42 mem_rdata[9]
*43 mem_rdy
*44 mem_re
*45 mem_waddr[0]
*46 mem_waddr[1]
*47 mem_waddr[2]
*48 mem_waddr[3]
*49 mem_waddr[4]
*50 mem_waddr[5]
*51 mem_waddr[6]
*52 mem_waddr[7]
*53 mem_wdata[0]
*54 mem_wdata[10]
*55 mem_wdata[11]
*56 mem_wdata[12]
*57 mem_wdata[13]
*58 mem_wdata[14]
*59 mem_wdata[15]
*60 mem_wdata[16]
*61 mem_wdata[17]
*62 mem_wdata[18]
*63 mem_wdata[19]
*64 mem_wdata[1]
*65 mem_wdata[20]
*66 mem_wdata[21]
*67 mem_wdata[22]
*68 mem_wdata[23]
*69 mem_wdata[24]
*70 mem_wdata[25]
*71 mem_wdata[26]
*72 mem_wdata[27]
*73 mem_wdata[28]
*74 mem_wdata[29]
*75 mem_wdata[2]
*76 mem_wdata[30]
*77 mem_wdata[31]
*78 mem_wdata[3]
*79 mem_wdata[4]
*80 mem_wdata[5]
*81 mem_wdata[6]
*82 mem_wdata[7]
*83 mem_wdata[8]
*84 mem_wdata[9]
*85 mem_we
*86 rx
*87 tx
*90 _0000_
*91 _0001_
*92 _0002_
*93 _0003_
*94 _0004_
*95 _0005_
*96 _0006_
*97 _0007_
*98 _0008_
*99 _0009_
*100 _0010_
*101 _0011_
*102 _0012_
*103 _0013_
*104 _0014_
*105 _0015_
*106 _0016_
*107 _0017_
*108 _0018_
*109 _0019_
*110 _0020_
*111 _0021_
*112 _0022_
*113 _0023_
*114 _0024_
*115 _0025_
*116 _0026_
*117 _0027_
*118 _0028_
*119 _0029_
*120 _0030_
*121 _0031_
*122 _0032_
*123 _0033_
*124 _0034_
*125 _0035_
*126 _0036_
*127 _0037_
*128 _0038_
*129 _0039_
*130 _0040_
*131 _0041_
*132 _0042_
*133 _0043_
*134 _0044_
*135 _0045_
*136 _0046_
*137 _0047_
*138 _0048_
*139 _0049_
*140 _0050_
*141 _0051_
*142 _0052_
*143 _0053_
*144 _0054_
*145 _0055_
*146 _0056_
*147 _0057_
*148 _0058_
*149 _0059_
*150 _0060_
*151 _0061_
*152 _0062_
*153 _0063_
*154 _0064_
*155 _0065_
*156 _0066_
*157 _0067_
*158 _0068_
*159 _0069_
*160 _0070_
*161 _0071_
*162 _0072_
*163 _0073_
*164 _0074_
*165 _0075_
*166 _0076_
*167 _0077_
*168 _0078_
*169 _0079_
*170 _0080_
*171 _0081_
*172 _0082_
*173 _0083_
*174 _0084_
*175 _0085_
*176 _0086_
*177 _0087_
*178 _0088_
*179 _0089_
*180 _0090_
*181 _0091_
*182 _0092_
*183 _0093_
*184 _0094_
*185 _0095_
*186 _0096_
*187 _0097_
*188 _0098_
*189 _0099_
*190 _0100_
*191 _0101_
*192 _0102_
*193 _0103_
*194 _0104_
*195 _0105_
*196 _0106_
*197 _0107_
*198 _0108_
*199 _0109_
*200 _0110_
*201 _0111_
*202 _0112_
*203 _0113_
*204 _0114_
*205 _0115_
*206 _0116_
*207 _0117_
*208 _0118_
*209 _0119_
*210 _0120_
*211 _0121_
*212 _0122_
*213 _0123_
*214 _0124_
*215 _0125_
*216 _0126_
*217 _0127_
*218 _0128_
*219 _0129_
*220 _0130_
*221 _0131_
*222 _0132_
*223 _0133_
*224 _0134_
*225 _0135_
*226 _0136_
*227 _0137_
*228 _0138_
*229 _0139_
*230 _0140_
*231 _0141_
*232 _0142_
*233 _0143_
*234 _0144_
*235 _0145_
*236 _0146_
*237 _0147_
*238 _0148_
*239 _0149_
*240 _0150_
*241 _0151_
*242 _0152_
*243 _0153_
*244 _0154_
*245 _0155_
*246 _0156_
*247 _0157_
*248 _0158_
*249 _0159_
*250 _0160_
*251 _0161_
*252 _0162_
*253 _0163_
*254 _0164_
*255 _0165_
*256 _0166_
*257 _0167_
*258 _0168_
*259 _0169_
*260 _0170_
*261 _0171_
*262 _0172_
*263 _0173_
*264 _0174_
*265 _0175_
*266 _0176_
*267 _0177_
*268 _0178_
*269 _0179_
*270 _0180_
*271 _0181_
*272 _0182_
*273 _0183_
*274 _0184_
*275 _0185_
*276 _0186_
*277 _0187_
*278 _0188_
*279 _0189_
*280 _0190_
*281 _0191_
*282 _0192_
*283 _0193_
*284 _0194_
*285 _0195_
*286 _0196_
*287 _0197_
*288 _0198_
*289 _0199_
*290 _0200_
*291 _0201_
*292 _0202_
*293 _0203_
*294 _0204_
*295 _0205_
*296 _0206_
*297 _0207_
*298 _0208_
*299 _0209_
*300 _0210_
*301 _0211_
*302 _0212_
*303 _0213_
*304 _0214_
*305 _0215_
*306 _0216_
*307 _0217_
*308 _0218_
*309 _0219_
*310 _0220_
*311 _0221_
*312 _0222_
*313 _0223_
*314 _0224_
*315 _0225_
*316 _0226_
*317 _0227_
*318 _0228_
*319 _0229_
*320 _0230_
*321 _0231_
*322 _0232_
*323 _0233_
*324 _0234_
*325 _0235_
*326 _0236_
*327 _0237_
*328 _0238_
*329 _0239_
*330 _0240_
*331 _0241_
*332 _0242_
*333 _0243_
*334 _0244_
*335 _0245_
*336 _0246_
*337 _0247_
*338 _0248_
*339 _0249_
*340 _0250_
*341 _0251_
*342 _0252_
*343 _0253_
*344 _0254_
*345 _0255_
*346 _0256_
*347 _0257_
*348 _0258_
*349 _0259_
*350 _0260_
*351 _0261_
*352 _0262_
*353 _0263_
*354 _0264_
*355 _0265_
*356 _0266_
*357 _0267_
*358 _0268_
*359 _0269_
*360 _0270_
*361 _0271_
*362 _0272_
*363 _0273_
*364 _0274_
*365 _0275_
*366 _0276_
*367 _0277_
*368 _0278_
*369 _0279_
*370 _0280_
*371 _0281_
*372 _0282_
*373 _0283_
*374 _0284_
*375 _0285_
*376 _0286_
*377 _0287_
*378 _0288_
*379 _0289_
*380 _0290_
*381 _0291_
*382 _0292_
*383 _0293_
*384 _0294_
*385 _0295_
*386 _0296_
*387 _0297_
*388 _0298_
*389 _0299_
*390 _0300_
*391 _0301_
*392 _0302_
*393 _0303_
*394 _0304_
*395 _0305_
*396 _0306_
*397 _0307_
*398 _0308_
*399 _0309_
*400 _0310_
*401 _0311_
*402 _0312_
*403 _0313_
*404 _0314_
*405 _0315_
*406 _0316_
*407 _0317_
*408 _0318_
*409 _0319_
*410 _0320_
*411 _0321_
*412 _0322_
*413 _0323_
*414 _0324_
*415 _0325_
*416 _0326_
*417 _0327_
*418 _0328_
*419 _0329_
*420 _0330_
*421 _0331_
*422 _0332_
*423 _0333_
*424 _0334_
*425 _0335_
*426 _0336_
*427 _0337_
*428 _0338_
*429 _0339_
*430 _0340_
*431 _0341_
*432 _0342_
*433 _0343_
*434 _0344_
*435 _0345_
*436 _0346_
*437 _0347_
*438 _0348_
*439 _0349_
*440 _0350_
*441 _0351_
*442 _0352_
*443 _0353_
*444 _0354_
*445 _0355_
*446 _0356_
*447 _0357_
*448 _0358_
*449 _0359_
*450 _0360_
*451 _0361_
*452 _0362_
*453 _0363_
*454 _0364_
*455 _0365_
*456 _0366_
*457 _0367_
*458 _0368_
*459 _0369_
*460 _0370_
*461 _0371_
*462 _0372_
*463 _0373_
*464 _0374_
*465 _0375_
*466 _0376_
*467 _0377_
*468 _0378_
*469 _0379_
*470 _0380_
*471 _0381_
*472 _0382_
*473 _0383_
*474 _0384_
*475 _0385_
*476 _0386_
*477 _0387_
*478 _0388_
*479 _0389_
*480 _0390_
*481 _0391_
*482 _0392_
*483 _0393_
*484 _0394_
*485 _0395_
*486 _0396_
*487 _0397_
*488 _0398_
*489 _0399_
*490 _0400_
*491 _0401_
*492 _0402_
*493 _0403_
*494 _0404_
*495 _0405_
*496 _0406_
*497 _0407_
*498 _0408_
*499 _0409_
*500 _0410_
*501 _0411_
*502 _0412_
*503 _0413_
*504 _0414_
*505 _0415_
*506 _0416_
*507 _0417_
*508 _0418_
*509 _0419_
*510 _0420_
*511 _0421_
*512 _0422_
*513 _0423_
*514 _0424_
*515 _0425_
*516 _0426_
*517 _0427_
*518 _0428_
*519 _0429_
*520 _0430_
*521 _0431_
*522 _0432_
*523 _0433_
*524 _0434_
*525 _0435_
*526 _0436_
*527 _0437_
*528 _0438_
*529 _0439_
*530 _0440_
*531 _0441_
*532 _0442_
*533 _0443_
*534 _0444_
*535 _0445_
*536 _0446_
*537 _0447_
*538 _0448_
*539 _0449_
*540 _0450_
*541 _0451_
*542 _0452_
*543 _0453_
*544 _0454_
*545 _0455_
*546 _0456_
*547 _0457_
*548 _0458_
*549 _0459_
*550 _0460_
*551 _0461_
*552 _0462_
*553 _0463_
*554 _0464_
*555 _0465_
*556 _0466_
*557 _0467_
*558 _0468_
*559 _0469_
*560 _0470_
*561 _0471_
*562 _0472_
*563 _0473_
*564 _0474_
*565 _0475_
*566 _0476_
*567 _0477_
*568 _0478_
*569 _0479_
*570 _0480_
*571 _0481_
*572 _0482_
*573 _0483_
*574 _0484_
*575 _0485_
*576 _0486_
*577 _0487_
*578 _0488_
*579 _0489_
*580 _0490_
*581 _0491_
*582 _0492_
*583 _0493_
*584 _0494_
*585 _0495_
*586 _0496_
*587 _0497_
*588 _0498_
*589 _0499_
*590 _0500_
*591 _0501_
*592 _0502_
*593 _0503_
*594 _0504_
*595 _0505_
*596 _0506_
*597 _0507_
*598 _0508_
*599 _0509_
*600 _0510_
*601 _0511_
*602 _0512_
*603 _0513_
*604 _0514_
*605 _0515_
*606 _0516_
*607 _0517_
*608 _0518_
*609 _0519_
*610 _0520_
*611 _0521_
*612 _0522_
*613 _0523_
*614 _0524_
*615 _0525_
*616 _0526_
*617 _0527_
*618 _0528_
*619 _0529_
*620 _0530_
*621 _0531_
*622 _0532_
*623 _0533_
*624 _0534_
*625 _0535_
*626 _0536_
*627 _0537_
*628 _0538_
*629 _0539_
*630 _0540_
*631 _0541_
*632 _0542_
*633 _0543_
*634 _0544_
*635 _0545_
*636 _0546_
*637 _0547_
*638 _0548_
*639 _0549_
*640 _0550_
*641 _0551_
*642 _0552_
*643 _0553_
*644 _0554_
*645 _0555_
*646 _0556_
*647 _0557_
*648 _0558_
*649 _0559_
*650 _0560_
*651 _0561_
*652 _0562_
*653 _0563_
*654 _0564_
*655 _0565_
*656 _0566_
*657 _0567_
*658 _0568_
*659 _0569_
*660 _0570_
*661 _0571_
*662 _0572_
*663 _0573_
*664 _0574_
*665 _0575_
*666 _0576_
*667 _0577_
*668 _0578_
*669 _0579_
*670 _0580_
*671 _0581_
*672 _0582_
*673 _0583_
*674 _0584_
*675 _0585_
*676 _0586_
*677 _0587_
*678 _0588_
*679 _0589_
*680 _0590_
*681 _0591_
*682 _0592_
*683 _0593_
*684 _0594_
*685 _0595_
*686 _0596_
*687 _0597_
*688 _0598_
*689 _0599_
*690 _0600_
*691 _0601_
*692 _0602_
*693 _0603_
*694 _0604_
*695 _0605_
*696 _0606_
*697 _0607_
*698 _0608_
*699 _0609_
*700 _0610_
*701 _0611_
*702 _0612_
*703 _0613_
*704 _0614_
*705 _0615_
*706 _0616_
*707 _0617_
*708 _0618_
*709 _0619_
*710 _0620_
*711 _0621_
*712 _0622_
*713 clknet_0_clk
*714 clknet_2_0__leaf_clk
*715 clknet_2_1__leaf_clk
*716 clknet_2_2__leaf_clk
*717 clknet_2_3__leaf_clk
*718 clknet_leaf_0_clk
*719 clknet_leaf_10_clk
*720 clknet_leaf_11_clk
*721 clknet_leaf_12_clk
*722 clknet_leaf_13_clk
*723 clknet_leaf_14_clk
*724 clknet_leaf_15_clk
*725 clknet_leaf_16_clk
*726 clknet_leaf_17_clk
*727 clknet_leaf_18_clk
*728 clknet_leaf_19_clk
*729 clknet_leaf_1_clk
*730 clknet_leaf_20_clk
*731 clknet_leaf_21_clk
*732 clknet_leaf_22_clk
*733 clknet_leaf_23_clk
*734 clknet_leaf_24_clk
*735 clknet_leaf_25_clk
*736 clknet_leaf_26_clk
*737 clknet_leaf_27_clk
*738 clknet_leaf_28_clk
*739 clknet_leaf_29_clk
*740 clknet_leaf_2_clk
*741 clknet_leaf_30_clk
*742 clknet_leaf_3_clk
*743 clknet_leaf_4_clk
*744 clknet_leaf_5_clk
*745 clknet_leaf_6_clk
*746 clknet_leaf_7_clk
*747 clknet_leaf_8_clk
*748 clknet_leaf_9_clk
*749 ctl_reg_rdata\[0\]
*750 ctl_reg_rdata\[10\]
*751 ctl_reg_rdata\[11\]
*752 ctl_reg_rdata\[12\]
*753 ctl_reg_rdata\[13\]
*754 ctl_reg_rdata\[14\]
*755 ctl_reg_rdata\[15\]
*756 ctl_reg_rdata\[16\]
*757 ctl_reg_rdata\[17\]
*758 ctl_reg_rdata\[18\]
*759 ctl_reg_rdata\[1\]
*760 ctl_reg_rdata\[2\]
*761 ctl_reg_rdata\[3\]
*762 ctl_reg_rdata\[4\]
*763 ctl_reg_rdata\[5\]
*764 ctl_reg_rdata\[6\]
*765 ctl_reg_rdata\[7\]
*766 ctl_reg_wdata\[0\]
*767 ctl_reg_wdata\[10\]
*768 ctl_reg_wdata\[11\]
*769 ctl_reg_wdata\[12\]
*770 ctl_reg_wdata\[13\]
*771 ctl_reg_wdata\[14\]
*772 ctl_reg_wdata\[15\]
*773 ctl_reg_wdata\[16\]
*774 ctl_reg_wdata\[17\]
*775 ctl_reg_wdata\[18\]
*776 ctl_reg_wdata\[1\]
*777 ctl_reg_wdata\[2\]
*778 ctl_reg_wdata\[3\]
*779 ctl_reg_wdata\[4\]
*780 ctl_reg_wdata\[5\]
*781 ctl_reg_wdata\[6\]
*782 ctl_reg_wdata\[7\]
*783 ctl_reg_we
*784 ctl_reg_wmask\[0\]
*785 ctl_reg_wmask\[10\]
*786 ctl_reg_wmask\[1\]
*787 ctl_reg_wmask\[2\]
*788 ctl_reg_wmask\[3\]
*789 ctl_reg_wmask\[4\]
*790 ctl_reg_wmask\[5\]
*791 ctl_reg_wmask\[6\]
*792 ctl_reg_wmask\[7\]
*793 net1
*794 net10
*795 net100
*796 net101
*797 net102
*798 net103
*799 net104
*800 net105
*801 net106
*802 net107
*803 net108
*804 net109
*805 net11
*806 net110
*807 net111
*808 net112
*809 net113
*810 net114
*811 net115
*812 net116
*813 net117
*814 net118
*815 net119
*816 net12
*817 net120
*818 net121
*819 net122
*820 net123
*821 net124
*822 net125
*823 net126
*824 net127
*825 net128
*826 net129
*827 net13
*828 net130
*829 net131
*830 net132
*831 net133
*832 net134
*833 net135
*834 net136
*835 net137
*836 net138
*837 net139
*838 net14
*839 net140
*840 net141
*841 net142
*842 net143
*843 net144
*844 net145
*845 net146
*846 net147
*847 net148
*848 net149
*849 net15
*850 net150
*851 net151
*852 net152
*853 net153
*854 net154
*855 net155
*856 net156
*857 net157
*858 net158
*859 net159
*860 net16
*861 net160
*862 net161
*863 net162
*864 net163
*865 net164
*866 net165
*867 net166
*868 net167
*869 net168
*870 net169
*871 net17
*872 net170
*873 net171
*874 net172
*875 net173
*876 net174
*877 net175
*878 net176
*879 net177
*880 net178
*881 net179
*882 net18
*883 net180
*884 net181
*885 net182
*886 net183
*887 net184
*888 net185
*889 net186
*890 net187
*891 net188
*892 net189
*893 net19
*894 net190
*895 net191
*896 net192
*897 net193
*898 net194
*899 net195
*900 net196
*901 net197
*902 net198
*903 net199
*904 net2
*905 net20
*906 net200
*907 net201
*908 net202
*909 net203
*910 net204
*911 net205
*912 net206
*913 net207
*914 net208
*915 net209
*916 net21
*917 net210
*918 net211
*919 net212
*920 net213
*921 net214
*922 net215
*923 net216
*924 net217
*925 net218
*926 net219
*927 net22
*928 net220
*929 net221
*930 net222
*931 net223
*932 net224
*933 net225
*934 net226
*935 net227
*936 net228
*937 net229
*938 net23
*939 net230
*940 net231
*941 net232
*942 net233
*943 net234
*944 net235
*945 net236
*946 net237
*947 net238
*948 net239
*949 net24
*950 net240
*951 net241
*952 net242
*953 net243
*954 net244
*955 net245
*956 net246
*957 net247
*958 net248
*959 net249
*960 net25
*961 net250
*962 net251
*963 net252
*964 net253
*965 net254
*966 net255
*967 net256
*968 net257
*969 net258
*970 net259
*971 net26
*972 net260
*973 net261
*974 net262
*975 net263
*976 net264
*977 net265
*978 net266
*979 net267
*980 net268
*981 net269
*982 net27
*983 net270
*984 net271
*985 net272
*986 net273
*987 net274
*988 net275
*989 net276
*990 net277
*991 net278
*992 net279
*993 net28
*994 net280
*995 net281
*996 net282
*997 net283
*998 net284
*999 net285
*1000 net286
*1001 net287
*1002 net288
*1003 net289
*1004 net29
*1005 net290
*1006 net291
*1007 net292
*1008 net293
*1009 net294
*1010 net295
*1011 net296
*1012 net297
*1013 net298
*1014 net299
*1015 net3
*1016 net30
*1017 net300
*1018 net301
*1019 net302
*1020 net303
*1021 net304
*1022 net305
*1023 net306
*1024 net307
*1025 net308
*1026 net309
*1027 net31
*1028 net310
*1029 net311
*1030 net312
*1031 net313
*1032 net314
*1033 net315
*1034 net316
*1035 net317
*1036 net318
*1037 net319
*1038 net32
*1039 net320
*1040 net321
*1041 net322
*1042 net323
*1043 net324
*1044 net325
*1045 net326
*1046 net327
*1047 net328
*1048 net329
*1049 net33
*1050 net330
*1051 net331
*1052 net332
*1053 net333
*1054 net334
*1055 net335
*1056 net336
*1057 net337
*1058 net338
*1059 net339
*1060 net34
*1061 net340
*1062 net341
*1063 net342
*1064 net343
*1065 net344
*1066 net345
*1067 net346
*1068 net347
*1069 net348
*1070 net349
*1071 net35
*1072 net350
*1073 net351
*1074 net352
*1075 net353
*1076 net354
*1077 net355
*1078 net356
*1079 net357
*1080 net358
*1081 net359
*1082 net36
*1083 net360
*1084 net361
*1085 net362
*1086 net363
*1087 net364
*1088 net365
*1089 net366
*1090 net367
*1091 net368
*1092 net369
*1093 net37
*1094 net370
*1095 net371
*1096 net372
*1097 net373
*1098 net374
*1099 net375
*1100 net376
*1101 net377
*1102 net378
*1103 net379
*1104 net38
*1105 net380
*1106 net381
*1107 net382
*1108 net383
*1109 net384
*1110 net385
*1111 net386
*1112 net387
*1113 net388
*1114 net389
*1115 net39
*1116 net390
*1117 net391
*1118 net392
*1119 net393
*1120 net394
*1121 net395
*1122 net396
*1123 net397
*1124 net398
*1125 net399
*1126 net4
*1127 net40
*1128 net400
*1129 net401
*1130 net402
*1131 net403
*1132 net404
*1133 net405
*1134 net406
*1135 net407
*1136 net408
*1137 net409
*1138 net41
*1139 net410
*1140 net411
*1141 net412
*1142 net413
*1143 net414
*1144 net415
*1145 net416
*1146 net417
*1147 net418
*1148 net419
*1149 net42
*1150 net420
*1151 net421
*1152 net422
*1153 net423
*1154 net424
*1155 net425
*1156 net426
*1157 net427
*1158 net428
*1159 net429
*1160 net43
*1161 net430
*1162 net431
*1163 net432
*1164 net433
*1165 net434
*1166 net435
*1167 net436
*1168 net437
*1169 net438
*1170 net439
*1171 net44
*1172 net440
*1173 net441
*1174 net442
*1175 net443
*1176 net444
*1177 net445
*1178 net446
*1179 net447
*1180 net448
*1181 net449
*1182 net45
*1183 net450
*1184 net451
*1185 net452
*1186 net453
*1187 net454
*1188 net455
*1189 net456
*1190 net457
*1191 net458
*1192 net459
*1193 net46
*1194 net460
*1195 net461
*1196 net462
*1197 net463
*1198 net464
*1199 net465
*1200 net466
*1201 net467
*1202 net468
*1203 net469
*1204 net47
*1205 net470
*1206 net471
*1207 net472
*1208 net473
*1209 net474
*1210 net475
*1211 net476
*1212 net478
*1213 net479
*1214 net48
*1215 net480
*1216 net481
*1217 net482
*1218 net483
*1219 net484
*1220 net485
*1221 net486
*1222 net487
*1223 net488
*1224 net489
*1225 net49
*1226 net490
*1227 net491
*1228 net492
*1229 net493
*1230 net494
*1231 net495
*1232 net497
*1233 net498
*1234 net499
*1235 net5
*1236 net50
*1237 net500
*1238 net501
*1239 net502
*1240 net503
*1241 net504
*1242 net505
*1243 net506
*1244 net507
*1245 net508
*1246 net509
*1247 net51
*1248 net510
*1249 net511
*1250 net512
*1251 net513
*1252 net514
*1253 net515
*1254 net516
*1255 net517
*1256 net518
*1257 net519
*1258 net52
*1259 net520
*1260 net521
*1261 net522
*1262 net523
*1263 net525
*1264 net526
*1265 net527
*1266 net528
*1267 net529
*1268 net53
*1269 net530
*1270 net531
*1271 net532
*1272 net533
*1273 net534
*1274 net535
*1275 net536
*1276 net537
*1277 net538
*1278 net539
*1279 net54
*1280 net540
*1281 net541
*1282 net542
*1283 net543
*1284 net544
*1285 net545
*1286 net546
*1287 net547
*1288 net548
*1289 net549
*1290 net55
*1291 net550
*1292 net551
*1293 net552
*1294 net553
*1295 net554
*1296 net555
*1297 net556
*1298 net557
*1299 net558
*1300 net559
*1301 net56
*1302 net560
*1303 net561
*1304 net562
*1305 net563
*1306 net564
*1307 net565
*1308 net567
*1309 net568
*1310 net569
*1311 net57
*1312 net570
*1313 net571
*1314 net572
*1315 net573
*1316 net574
*1317 net575
*1318 net576
*1319 net577
*1320 net578
*1321 net579
*1322 net58
*1323 net580
*1324 net581
*1325 net582
*1326 net583
*1327 net584
*1328 net585
*1329 net586
*1330 net587
*1331 net588
*1332 net589
*1333 net59
*1334 net591
*1335 net592
*1336 net593
*1337 net594
*1338 net595
*1339 net596
*1340 net597
*1341 net598
*1342 net599
*1343 net6
*1344 net60
*1345 net600
*1346 net61
*1347 net62
*1348 net63
*1349 net64
*1350 net65
*1351 net66
*1352 net67
*1353 net68
*1354 net69
*1355 net7
*1356 net70
*1357 net71
*1358 net72
*1359 net73
*1360 net74
*1361 net75
*1362 net76
*1363 net77
*1364 net78
*1365 net79
*1366 net8
*1367 net80
*1368 net81
*1369 net82
*1370 net83
*1371 net84
*1372 net85
*1373 net86
*1374 net87
*1375 net88
*1376 net89
*1377 net9
*1378 net90
*1379 net91
*1380 net92
*1381 net93
*1382 net94
*1383 net95
*1384 net96
*1385 net97
*1386 net98
*1387 net99
*1388 st_reg_rdata\[10\]
*1389 st_reg_rdata\[11\]
*1390 st_reg_rdata\[9\]
*1391 st_reg_re
*1392 st_reg_rmask\[0\]
*1393 st_reg_rmask\[1\]
*1394 st_reg_rmask\[2\]
*1395 st_reg_rmask\[3\]
*1396 st_reg_rmask\[4\]
*1397 st_reg_rmask\[5\]
*1398 st_reg_rmask\[6\]
*1399 st_reg_rmask\[7\]
*1400 st_reg_rmask\[8\]
*1401 uart_ip_i\.recv_busy
*1402 uart_ip_i\.recv_error
*1403 uart_ip_i\.recv_int
*1404 uart_ip_i\.rx_2ff_sync\.ff1
*1405 uart_ip_i\.rx_2ff_sync\.ff2
*1406 uart_ip_i\.tnsm_busy
*1407 uart_ip_i\.tnsm_clr
*1408 uart_ip_i\.uart_clk_gen_i\.rx_clk_cnt\[0\]
*1409 uart_ip_i\.uart_clk_gen_i\.rx_clk_cnt\[10\]
*1410 uart_ip_i\.uart_clk_gen_i\.rx_clk_cnt\[11\]
*1411 uart_ip_i\.uart_clk_gen_i\.rx_clk_cnt\[12\]
*1412 uart_ip_i\.uart_clk_gen_i\.rx_clk_cnt\[13\]
*1413 uart_ip_i\.uart_clk_gen_i\.rx_clk_cnt\[1\]
*1414 uart_ip_i\.uart_clk_gen_i\.rx_clk_cnt\[2\]
*1415 uart_ip_i\.uart_clk_gen_i\.rx_clk_cnt\[3\]
*1416 uart_ip_i\.uart_clk_gen_i\.rx_clk_cnt\[4\]
*1417 uart_ip_i\.uart_clk_gen_i\.rx_clk_cnt\[5\]
*1418 uart_ip_i\.uart_clk_gen_i\.rx_clk_cnt\[6\]
*1419 uart_ip_i\.uart_clk_gen_i\.rx_clk_cnt\[7\]
*1420 uart_ip_i\.uart_clk_gen_i\.rx_clk_cnt\[8\]
*1421 uart_ip_i\.uart_clk_gen_i\.rx_clk_cnt\[9\]
*1422 uart_ip_i\.uart_clk_gen_i\.tx_clk_cnt\[0\]
*1423 uart_ip_i\.uart_clk_gen_i\.tx_clk_cnt\[10\]
*1424 uart_ip_i\.uart_clk_gen_i\.tx_clk_cnt\[11\]
*1425 uart_ip_i\.uart_clk_gen_i\.tx_clk_cnt\[12\]
*1426 uart_ip_i\.uart_clk_gen_i\.tx_clk_cnt\[13\]
*1427 uart_ip_i\.uart_clk_gen_i\.tx_clk_cnt\[14\]
*1428 uart_ip_i\.uart_clk_gen_i\.tx_clk_cnt\[15\]
*1429 uart_ip_i\.uart_clk_gen_i\.tx_clk_cnt\[16\]
*1430 uart_ip_i\.uart_clk_gen_i\.tx_clk_cnt\[17\]
*1431 uart_ip_i\.uart_clk_gen_i\.tx_clk_cnt\[1\]
*1432 uart_ip_i\.uart_clk_gen_i\.tx_clk_cnt\[2\]
*1433 uart_ip_i\.uart_clk_gen_i\.tx_clk_cnt\[3\]
*1434 uart_ip_i\.uart_clk_gen_i\.tx_clk_cnt\[4\]
*1435 uart_ip_i\.uart_clk_gen_i\.tx_clk_cnt\[5\]
*1436 uart_ip_i\.uart_clk_gen_i\.tx_clk_cnt\[6\]
*1437 uart_ip_i\.uart_clk_gen_i\.tx_clk_cnt\[7\]
*1438 uart_ip_i\.uart_clk_gen_i\.tx_clk_cnt\[8\]
*1439 uart_ip_i\.uart_clk_gen_i\.tx_clk_cnt\[9\]
*1440 uart_ip_i\.uart_edge_detector_i\.rx_r\[0\]
*1441 uart_ip_i\.uart_edge_detector_i\.rx_r\[1\]
*1442 uart_ip_i\.uart_edge_detector_i\.rx_r\[2\]
*1443 uart_ip_i\.uart_recv_i\.bitcnt\[0\]
*1444 uart_ip_i\.uart_recv_i\.bitcnt\[1\]
*1445 uart_ip_i\.uart_recv_i\.bitcnt\[2\]
*1446 uart_ip_i\.uart_recv_i\.bitcnt\[3\]
*1447 uart_ip_i\.uart_recv_i\.curr_state\[0\]
*1448 uart_ip_i\.uart_recv_i\.curr_state\[1\]
*1449 uart_ip_i\.uart_recv_i\.curr_state\[2\]
*1450 uart_ip_i\.uart_recv_i\.data_r\[0\]
*1451 uart_ip_i\.uart_recv_i\.data_r\[1\]
*1452 uart_ip_i\.uart_recv_i\.data_r\[2\]
*1453 uart_ip_i\.uart_recv_i\.data_r\[3\]
*1454 uart_ip_i\.uart_recv_i\.data_r\[4\]
*1455 uart_ip_i\.uart_recv_i\.data_r\[5\]
*1456 uart_ip_i\.uart_recv_i\.data_r\[6\]
*1457 uart_ip_i\.uart_recv_i\.data_r\[7\]
*1458 uart_ip_i\.uart_recv_i\.ovsample_cnt\[0\]
*1459 uart_ip_i\.uart_recv_i\.ovsample_cnt\[1\]
*1460 uart_ip_i\.uart_recv_i\.ovsample_cnt\[2\]
*1461 uart_ip_i\.uart_recv_i\.ovsample_cnt\[3\]
*1462 uart_ip_i\.uart_recv_i\.ovsample_cnt\[4\]
*1463 uart_ip_i\.uart_recv_i\.parity
*1464 uart_ip_i\.uart_status_reg_i\.reg_\[0\]
*1465 uart_ip_i\.uart_status_reg_i\.reg_\[1\]
*1466 uart_ip_i\.uart_status_reg_i\.reg_\[2\]
*1467 uart_ip_i\.uart_status_reg_i\.reg_\[3\]
*1468 uart_ip_i\.uart_status_reg_i\.reg_\[4\]
*1469 uart_ip_i\.uart_status_reg_i\.reg_\[5\]
*1470 uart_ip_i\.uart_status_reg_i\.reg_\[6\]
*1471 uart_ip_i\.uart_status_reg_i\.reg_\[7\]
*1472 uart_ip_i\.uart_status_reg_i\.reg_\[8\]
*1473 uart_ip_i\.uart_tnsm_i\.bitcnt\[0\]
*1474 uart_ip_i\.uart_tnsm_i\.bitcnt\[1\]
*1475 uart_ip_i\.uart_tnsm_i\.bitcnt\[2\]
*1476 uart_ip_i\.uart_tnsm_i\.bitcnt\[3\]
*1477 uart_ip_i\.uart_tnsm_i\.curr_state\[0\]
*1478 uart_ip_i\.uart_tnsm_i\.curr_state\[1\]
*1479 uart_ip_i\.uart_tnsm_i\.curr_state\[2\]
*1480 uart_ip_i\.uart_tnsm_i\.data_r\[0\]
*1481 uart_ip_i\.uart_tnsm_i\.data_r\[1\]
*1482 uart_ip_i\.uart_tnsm_i\.data_r\[2\]
*1483 uart_ip_i\.uart_tnsm_i\.data_r\[3\]
*1484 uart_ip_i\.uart_tnsm_i\.data_r\[4\]
*1485 uart_ip_i\.uart_tnsm_i\.data_r\[5\]
*1486 uart_ip_i\.uart_tnsm_i\.data_r\[6\]
*1487 uart_ip_i\.uart_tnsm_i\.data_r\[7\]
*1488 uart_ip_i\.uart_tnsm_i\.parity
*1489 uart_ip_memory_mapped_ctrl_fsm_i\.command_r\[0\]
*1490 uart_ip_memory_mapped_ctrl_fsm_i\.command_r\[1\]
*1491 uart_ip_memory_mapped_ctrl_fsm_i\.command_r\[2\]
*1492 uart_ip_memory_mapped_ctrl_fsm_i\.command_r\[3\]
*1493 uart_ip_memory_mapped_ctrl_fsm_i\.command_r\[4\]
*1494 uart_ip_memory_mapped_ctrl_fsm_i\.command_r\[5\]
*1495 uart_ip_memory_mapped_ctrl_fsm_i\.command_r\[6\]
*1496 uart_ip_memory_mapped_ctrl_fsm_i\.command_r\[7\]
*1497 uart_ip_memory_mapped_ctrl_fsm_i\.data_bytes\[0\]
*1498 uart_ip_memory_mapped_ctrl_fsm_i\.data_bytes\[10\]
*1499 uart_ip_memory_mapped_ctrl_fsm_i\.data_bytes\[11\]
*1500 uart_ip_memory_mapped_ctrl_fsm_i\.data_bytes\[12\]
*1501 uart_ip_memory_mapped_ctrl_fsm_i\.data_bytes\[13\]
*1502 uart_ip_memory_mapped_ctrl_fsm_i\.data_bytes\[14\]
*1503 uart_ip_memory_mapped_ctrl_fsm_i\.data_bytes\[15\]
*1504 uart_ip_memory_mapped_ctrl_fsm_i\.data_bytes\[16\]
*1505 uart_ip_memory_mapped_ctrl_fsm_i\.data_bytes\[17\]
*1506 uart_ip_memory_mapped_ctrl_fsm_i\.data_bytes\[18\]
*1507 uart_ip_memory_mapped_ctrl_fsm_i\.data_bytes\[19\]
*1508 uart_ip_memory_mapped_ctrl_fsm_i\.data_bytes\[1\]
*1509 uart_ip_memory_mapped_ctrl_fsm_i\.data_bytes\[20\]
*1510 uart_ip_memory_mapped_ctrl_fsm_i\.data_bytes\[21\]
*1511 uart_ip_memory_mapped_ctrl_fsm_i\.data_bytes\[22\]
*1512 uart_ip_memory_mapped_ctrl_fsm_i\.data_bytes\[23\]
*1513 uart_ip_memory_mapped_ctrl_fsm_i\.data_bytes\[24\]
*1514 uart_ip_memory_mapped_ctrl_fsm_i\.data_bytes\[25\]
*1515 uart_ip_memory_mapped_ctrl_fsm_i\.data_bytes\[26\]
*1516 uart_ip_memory_mapped_ctrl_fsm_i\.data_bytes\[27\]
*1517 uart_ip_memory_mapped_ctrl_fsm_i\.data_bytes\[28\]
*1518 uart_ip_memory_mapped_ctrl_fsm_i\.data_bytes\[29\]
*1519 uart_ip_memory_mapped_ctrl_fsm_i\.data_bytes\[2\]
*1520 uart_ip_memory_mapped_ctrl_fsm_i\.data_bytes\[30\]
*1521 uart_ip_memory_mapped_ctrl_fsm_i\.data_bytes\[31\]
*1522 uart_ip_memory_mapped_ctrl_fsm_i\.data_bytes\[3\]
*1523 uart_ip_memory_mapped_ctrl_fsm_i\.data_bytes\[4\]
*1524 uart_ip_memory_mapped_ctrl_fsm_i\.data_bytes\[5\]
*1525 uart_ip_memory_mapped_ctrl_fsm_i\.data_bytes\[6\]
*1526 uart_ip_memory_mapped_ctrl_fsm_i\.data_bytes\[7\]
*1527 uart_ip_memory_mapped_ctrl_fsm_i\.data_bytes\[8\]
*1528 uart_ip_memory_mapped_ctrl_fsm_i\.data_bytes\[9\]
*1529 uart_ip_memory_mapped_ctrl_fsm_i\.inc_bytes_cnt\[0\]
*1530 uart_ip_memory_mapped_ctrl_fsm_i\.inc_bytes_cnt\[1\]
*1531 uart_ip_memory_mapped_ctrl_fsm_i\.inc_bytes_cnt\[2\]
*1532 uart_ip_memory_mapped_ctrl_fsm_i\.inc_bytes_cnt\[3\]
*1533 uart_ip_memory_mapped_ctrl_fsm_i\.inc_bytes_cnt\[4\]
*1534 uart_ip_memory_mapped_ctrl_fsm_i\.inc_bytes_cnt\[5\]
*1535 uart_ip_memory_mapped_ctrl_fsm_i\.inc_bytes_cnt\[6\]
*1536 uart_ip_memory_mapped_ctrl_fsm_i\.mem_rdata_r\[0\]
*1537 uart_ip_memory_mapped_ctrl_fsm_i\.mem_rdata_r\[10\]
*1538 uart_ip_memory_mapped_ctrl_fsm_i\.mem_rdata_r\[11\]
*1539 uart_ip_memory_mapped_ctrl_fsm_i\.mem_rdata_r\[12\]
*1540 uart_ip_memory_mapped_ctrl_fsm_i\.mem_rdata_r\[13\]
*1541 uart_ip_memory_mapped_ctrl_fsm_i\.mem_rdata_r\[14\]
*1542 uart_ip_memory_mapped_ctrl_fsm_i\.mem_rdata_r\[15\]
*1543 uart_ip_memory_mapped_ctrl_fsm_i\.mem_rdata_r\[16\]
*1544 uart_ip_memory_mapped_ctrl_fsm_i\.mem_rdata_r\[17\]
*1545 uart_ip_memory_mapped_ctrl_fsm_i\.mem_rdata_r\[18\]
*1546 uart_ip_memory_mapped_ctrl_fsm_i\.mem_rdata_r\[19\]
*1547 uart_ip_memory_mapped_ctrl_fsm_i\.mem_rdata_r\[1\]
*1548 uart_ip_memory_mapped_ctrl_fsm_i\.mem_rdata_r\[20\]
*1549 uart_ip_memory_mapped_ctrl_fsm_i\.mem_rdata_r\[21\]
*1550 uart_ip_memory_mapped_ctrl_fsm_i\.mem_rdata_r\[22\]
*1551 uart_ip_memory_mapped_ctrl_fsm_i\.mem_rdata_r\[23\]
*1552 uart_ip_memory_mapped_ctrl_fsm_i\.mem_rdata_r\[24\]
*1553 uart_ip_memory_mapped_ctrl_fsm_i\.mem_rdata_r\[25\]
*1554 uart_ip_memory_mapped_ctrl_fsm_i\.mem_rdata_r\[26\]
*1555 uart_ip_memory_mapped_ctrl_fsm_i\.mem_rdata_r\[27\]
*1556 uart_ip_memory_mapped_ctrl_fsm_i\.mem_rdata_r\[28\]
*1557 uart_ip_memory_mapped_ctrl_fsm_i\.mem_rdata_r\[29\]
*1558 uart_ip_memory_mapped_ctrl_fsm_i\.mem_rdata_r\[2\]
*1559 uart_ip_memory_mapped_ctrl_fsm_i\.mem_rdata_r\[30\]
*1560 uart_ip_memory_mapped_ctrl_fsm_i\.mem_rdata_r\[31\]
*1561 uart_ip_memory_mapped_ctrl_fsm_i\.mem_rdata_r\[3\]
*1562 uart_ip_memory_mapped_ctrl_fsm_i\.mem_rdata_r\[4\]
*1563 uart_ip_memory_mapped_ctrl_fsm_i\.mem_rdata_r\[5\]
*1564 uart_ip_memory_mapped_ctrl_fsm_i\.mem_rdata_r\[6\]
*1565 uart_ip_memory_mapped_ctrl_fsm_i\.mem_rdata_r\[7\]
*1566 uart_ip_memory_mapped_ctrl_fsm_i\.mem_rdata_r\[8\]
*1567 uart_ip_memory_mapped_ctrl_fsm_i\.mem_rdata_r\[9\]
*1568 uart_ip_memory_mapped_ctrl_fsm_i\.state\[0\]
*1569 uart_ip_memory_mapped_ctrl_fsm_i\.state\[1\]
*1570 uart_ip_memory_mapped_ctrl_fsm_i\.state\[2\]
*1571 uart_ip_memory_mapped_ctrl_fsm_i\.state\[3\]
*1572 uart_ip_memory_mapped_ctrl_fsm_i\.state\[4\]
*1573 ANTENNA_1
*1574 ANTENNA_2
*1575 ANTENNA_3
*1576 ANTENNA__0625__A
*1577 ANTENNA__0627__A
*1578 ANTENNA__0627__Y
*1579 ANTENNA__0646__A
*1580 ANTENNA__0657__A
*1581 ANTENNA__0659__B
*1582 ANTENNA__0667__X
*1583 ANTENNA__0668__A1
*1584 ANTENNA__0668__B1
*1585 ANTENNA__0673__B
*1586 ANTENNA__0674__B
*1587 ANTENNA__0675__B
*1588 ANTENNA__0676__B
*1589 ANTENNA__0677__B
*1590 ANTENNA__0678__B
*1591 ANTENNA__0679__B
*1592 ANTENNA__0680__B
*1593 ANTENNA__0682__A1
*1594 ANTENNA__0683__B1
*1595 ANTENNA__0684__B1
*1596 ANTENNA__0684__B2
*1597 ANTENNA__0685__B1
*1598 ANTENNA__0685__B2
*1599 ANTENNA__0687__B1
*1600 ANTENNA__0687__B2
*1601 ANTENNA__0688__A
*1602 ANTENNA__0689__A
*1603 ANTENNA__0690__A
*1604 ANTENNA__0691__B
*1605 ANTENNA__0692__B
*1606 ANTENNA__0693__B
*1607 ANTENNA__0694__B
*1608 ANTENNA__0695__B
*1609 ANTENNA__0696__B
*1610 ANTENNA__0697__B
*1611 ANTENNA__0698__B
*1612 ANTENNA__0699__A_N
*1613 ANTENNA__0699__B
*1614 ANTENNA__0700__A_N
*1615 ANTENNA__0700__B
*1616 ANTENNA__0702__B2
*1617 ANTENNA__0703__A1
*1618 ANTENNA__0703__A2
*1619 ANTENNA__0704__B1_N
*1620 ANTENNA__0705__A1
*1621 ANTENNA__0706__A_N
*1622 ANTENNA__0706__B
*1623 ANTENNA__0714__A
*1624 ANTENNA__0730__B1
*1625 ANTENNA__0732__B1
*1626 ANTENNA__0736__B
*1627 ANTENNA__0738__B1
*1628 ANTENNA__0741__B1
*1629 ANTENNA__0744__B1
*1630 ANTENNA__0747__B1
*1631 ANTENNA__0749__B1
*1632 ANTENNA__0752__A
*1633 ANTENNA__0753__A
*1634 ANTENNA__0755__A
*1635 ANTENNA__0763__A1
*1636 ANTENNA__0763__A2
*1637 ANTENNA__0767__A
*1638 ANTENNA__0779__A
*1639 ANTENNA__0807__B
*1640 ANTENNA__0809__A
*1641 ANTENNA__0812__B1
*1642 ANTENNA__0815__B1
*1643 ANTENNA__0817__B1
*1644 ANTENNA__0821__B
*1645 ANTENNA__0823__B1
*1646 ANTENNA__0825__B1
*1647 ANTENNA__0829__B
*1648 ANTENNA__0830__B
*1649 ANTENNA__0845__B
*1650 ANTENNA__0849__A1
*1651 ANTENNA__0854__B1
*1652 ANTENNA__0872__S
*1653 ANTENNA__0873__S
*1654 ANTENNA__0874__A0
*1655 ANTENNA__0874__S
*1656 ANTENNA__0877__S
*1657 ANTENNA__0878__S
*1658 ANTENNA__0881__A1
*1659 ANTENNA__0882__Y
*1660 ANTENNA__0883__A1
*1661 ANTENNA__0890__Y
*1662 ANTENNA__0891__A1
*1663 ANTENNA__0892__Y
*1664 ANTENNA__0893__A1
*1665 ANTENNA__0894__Y
*1666 ANTENNA__0895__A1
*1667 ANTENNA__0896__A1
*1668 ANTENNA__0904__S
*1669 ANTENNA__0905__S
*1670 ANTENNA__0906__S
*1671 ANTENNA__0909__S
*1672 ANTENNA__0912__S
*1673 ANTENNA__0913__S