*SPEF "ieee 1481-1999"
*DESIGN "command_arbiter_decoder"
*DATE "02:00:17 Thursday March 26, 2026"
*VENDOR "The OpenROAD Project"
*PROGRAM "OpenROAD"
*VERSION "edf00dff99f6c40d67a30c0e22a8191c5d2ed9d6"
*DESIGN_FLOW "NAME_SCOPE LOCAL" "PIN_CAP NONE"
*DIVIDER /
*DELIMITER :
*BUS_DELIMITER []
*T_UNIT 1 NS
*C_UNIT 1 PF
*R_UNIT 1 OHM
*L_UNIT 1 HENRY

*NAME_MAP
*1 arst_n
*2 clk
*3 conf_logics_0[0]
*4 conf_logics_0[10]
*5 conf_logics_0[11]
*6 conf_logics_0[12]
*7 conf_logics_0[13]
*8 conf_logics_0[14]
*9 conf_logics_0[15]
*10 conf_logics_0[16]
*11 conf_logics_0[17]
*12 conf_logics_0[18]
*13 conf_logics_0[19]
*14 conf_logics_0[1]
*15 conf_logics_0[20]
*16 conf_logics_0[2]
*17 conf_logics_0[3]
*18 conf_logics_0[4]
*19 conf_logics_0[5]
*20 conf_logics_0[6]
*21 conf_logics_0[7]
*22 conf_logics_0[8]
*23 conf_logics_0[9]
*24 conf_logics_1[0]
*25 conf_logics_1[10]
*26 conf_logics_1[11]
*27 conf_logics_1[12]
*28 conf_logics_1[13]
*29 conf_logics_1[14]
*30 conf_logics_1[15]
*31 conf_logics_1[16]
*32 conf_logics_1[17]
*33 conf_logics_1[18]
*34 conf_logics_1[19]
*35 conf_logics_1[1]
*36 conf_logics_1[20]
*37 conf_logics_1[2]
*38 conf_logics_1[3]
*39 conf_logics_1[4]
*40 conf_logics_1[5]
*41 conf_logics_1[6]
*42 conf_logics_1[7]
*43 conf_logics_1[8]
*44 conf_logics_1[9]
*45 drw_inc_busy
*46 drw_inc_start
*47 host_rd_buff_empty
*48 host_rd_buff_rdata[0]
*49 host_rd_buff_rdata[1]
*50 host_rd_buff_rdata[2]
*51 host_rd_buff_rdata[3]
*52 host_rd_buff_rdata[4]
*53 host_rd_buff_rdata[5]
*54 host_rd_buff_rdata[6]
*55 host_rd_buff_rdata[7]
*56 host_rd_buff_rden
*57 host_rpg_ack
*58 host_rpg_burst_length[0]
*59 host_rpg_burst_length[1]
*60 host_rpg_burst_length[2]
*61 host_rpg_burst_length[3]
*62 host_rpg_burst_length[4]
*63 host_rpg_burst_length[5]
*64 host_rpg_burst_length[6]
*65 host_rpg_burst_length[7]
*66 host_rpg_burst_length[8]
*67 host_rpg_burst_length[9]
*68 host_rpg_busy
*69 host_rpg_st_addr[0]
*70 host_rpg_st_addr[1]
*71 host_rpg_st_addr[2]
*72 host_rpg_st_addr[3]
*73 host_rpg_st_addr[4]
*74 host_rpg_st_addr[5]
*75 host_rpg_st_addr[6]
*76 host_rpg_st_addr[7]
*77 host_rpg_st_addr[8]
*78 host_rpg_st_addr[9]
*79 host_wpg_ack
*80 host_wpg_burst_length[0]
*81 host_wpg_burst_length[1]
*82 host_wpg_burst_length[2]
*83 host_wpg_burst_length[3]
*84 host_wpg_burst_length[4]
*85 host_wpg_burst_length[5]
*86 host_wpg_burst_length[6]
*87 host_wpg_burst_length[7]
*88 host_wpg_burst_length[8]
*89 host_wpg_burst_length[9]
*90 host_wpg_busy
*91 host_wpg_st_addr[0]
*92 host_wpg_st_addr[1]
*93 host_wpg_st_addr[2]
*94 host_wpg_st_addr[3]
*95 host_wpg_st_addr[4]
*96 host_wpg_st_addr[5]
*97 host_wpg_st_addr[6]
*98 host_wpg_st_addr[7]
*99 host_wpg_st_addr[8]
*100 host_wpg_st_addr[9]
*101 host_wr_buff_full
*102 host_wr_buff_wdata[0]
*103 host_wr_buff_wdata[1]
*104 host_wr_buff_wdata[2]
*105 host_wr_buff_wdata[3]
*106 host_wr_buff_wdata[4]
*107 host_wr_buff_wdata[5]
*108 host_wr_buff_wdata[6]
*109 host_wr_buff_wdata[7]
*110 host_wr_buff_wren
*111 obj_height[0]
*112 obj_height[10]
*113 obj_height[1]
*114 obj_height[2]
*115 obj_height[3]
*116 obj_height[4]
*117 obj_height[5]
*118 obj_height[6]
*119 obj_height[7]
*120 obj_height[8]
*121 obj_height[9]
*122 obj_st_mask[0]
*123 obj_st_mask[10]
*124 obj_st_mask[11]
*125 obj_st_mask[12]
*126 obj_st_mask[13]
*127 obj_st_mask[14]
*128 obj_st_mask[15]
*129 obj_st_mask[16]
*130 obj_st_mask[17]
*131 obj_st_mask[18]
*132 obj_st_mask[19]
*133 obj_st_mask[1]
*134 obj_st_mask[20]
*135 obj_st_mask[21]
*136 obj_st_mask[2]
*137 obj_st_mask[3]
*138 obj_st_mask[4]
*139 obj_st_mask[5]
*140 obj_st_mask[6]
*141 obj_st_mask[7]
*142 obj_st_mask[8]
*143 obj_st_mask[9]
*144 obj_st_pix[0]
*145 obj_st_pix[10]
*146 obj_st_pix[11]
*147 obj_st_pix[12]
*148 obj_st_pix[13]
*149 obj_st_pix[14]
*150 obj_st_pix[15]
*151 obj_st_pix[16]
*152 obj_st_pix[17]
*153 obj_st_pix[18]
*154 obj_st_pix[19]
*155 obj_st_pix[1]
*156 obj_st_pix[20]
*157 obj_st_pix[21]
*158 obj_st_pix[2]
*159 obj_st_pix[3]
*160 obj_st_pix[4]
*161 obj_st_pix[5]
*162 obj_st_pix[6]
*163 obj_st_pix[7]
*164 obj_st_pix[8]
*165 obj_st_pix[9]
*166 obj_type[0]
*167 obj_type[1]
*168 obj_type[2]
*169 obj_type[3]
*170 obj_value[0]
*171 obj_value[10]
*172 obj_value[11]
*173 obj_value[12]
*174 obj_value[13]
*175 obj_value[14]
*176 obj_value[1]
*177 obj_value[2]
*178 obj_value[3]
*179 obj_value[4]
*180 obj_value[5]
*181 obj_value[6]
*182 obj_value[7]
*183 obj_value[8]
*184 obj_value[9]
*185 obj_width[0]
*186 obj_width[10]
*187 obj_width[1]
*188 obj_width[2]
*189 obj_width[3]
*190 obj_width[4]
*191 obj_width[5]
*192 obj_width[6]
*193 obj_width[7]
*194 obj_width[8]
*195 obj_width[9]
*196 uart_mem_raddr[0]
*197 uart_mem_raddr[1]
*198 uart_mem_raddr[2]
*199 uart_mem_raddr[3]
*200 uart_mem_raddr[4]
*201 uart_mem_raddr[5]
*202 uart_mem_raddr[6]
*203 uart_mem_raddr[7]
*204 uart_mem_rdata[0]
*205 net322
*206 net323
*207 net324
*208 net325
*209 net326
*210 net327
*211 net328
*212 net329
*213 net330
*214 net331
*215 uart_mem_rdata[1]
*216 net332
*217 net333
*218 net334
*219 net335
*220 net336
*221 net337
*222 net338
*223 net339
*224 net340
*225 net341
*226 uart_mem_rdata[2]
*227 net342
*228 net343
*229 uart_mem_rdata[3]
*230 uart_mem_rdata[4]
*231 uart_mem_rdata[5]
*232 uart_mem_rdata[6]
*233 uart_mem_rdata[7]
*234 net320
*235 net321
*236 net375
*237 uart_mem_re
*238 uart_mem_waddr[0]
*239 uart_mem_waddr[1]
*240 uart_mem_waddr[2]
*241 uart_mem_waddr[3]
*242 uart_mem_waddr[4]
*243 uart_mem_waddr[5]
*244 uart_mem_waddr[6]
*245 uart_mem_waddr[7]
*246 uart_mem_wdata[0]
*247 uart_mem_wdata[10]
*248 uart_mem_wdata[11]
*249 uart_mem_wdata[12]
*250 uart_mem_wdata[13]
*251 uart_mem_wdata[14]
*252 uart_mem_wdata[15]
*253 uart_mem_wdata[16]
*254 uart_mem_wdata[17]
*255 uart_mem_wdata[18]
*256 uart_mem_wdata[19]
*257 uart_mem_wdata[1]
*258 uart_mem_wdata[20]
*259 uart_mem_wdata[21]
*260 uart_mem_wdata[22]
*261 uart_mem_wdata[23]
*262 uart_mem_wdata[24]
*263 uart_mem_wdata[25]
*264 uart_mem_wdata[26]
*265 uart_mem_wdata[27]
*266 uart_mem_wdata[28]
*267 uart_mem_wdata[29]
*268 uart_mem_wdata[2]
*269 uart_mem_wdata[30]
*270 uart_mem_wdata[31]
*271 uart_mem_wdata[3]
*272 uart_mem_wdata[4]
*273 uart_mem_wdata[5]
*274 uart_mem_wdata[6]
*275 uart_mem_wdata[7]
*276 uart_mem_wdata[8]
*277 uart_mem_wdata[9]
*278 uart_mem_we
*279 up_soft_reset
*280 up_soft_reset_req
*283 wb_mem_sys_wb_ack_o
*284 wb_slave_mem_raddr[0]
*285 wb_slave_mem_raddr[10]
*286 wb_slave_mem_raddr[11]
*287 wb_slave_mem_raddr[12]
*288 wb_slave_mem_raddr[13]
*289 wb_slave_mem_raddr[14]
*290 wb_slave_mem_raddr[15]
*291 wb_slave_mem_raddr[16]
*292 wb_slave_mem_raddr[17]
*293 wb_slave_mem_raddr[18]
*294 wb_slave_mem_raddr[19]
*295 wb_slave_mem_raddr[1]
*296 wb_slave_mem_raddr[20]
*297 wb_slave_mem_raddr[21]
*298 wb_slave_mem_raddr[22]
*299 wb_slave_mem_raddr[23]
*300 wb_slave_mem_raddr[24]
*301 wb_slave_mem_raddr[25]
*302 wb_slave_mem_raddr[26]
*303 wb_slave_mem_raddr[27]
*304 wb_slave_mem_raddr[28]
*305 wb_slave_mem_raddr[29]
*306 wb_slave_mem_raddr[2]
*307 wb_slave_mem_raddr[30]
*308 wb_slave_mem_raddr[31]
*309 wb_slave_mem_raddr[3]
*310 wb_slave_mem_raddr[4]
*311 wb_slave_mem_raddr[5]
*312 wb_slave_mem_raddr[6]
*313 wb_slave_mem_raddr[7]
*314 wb_slave_mem_raddr[8]
*315 wb_slave_mem_raddr[9]
*316 wb_slave_mem_rdata[0]
*317 net353
*318 net354
*319 net355
*320 net356
*321 net357
*322 net358
*323 net359
*324 net360
*325 net361
*326 net362
*327 net344
*328 net363
*329 net364
*330 net365
*331 net366
*332 net367
*333 net368
*334 net369
*335 net370
*336 net371
*337 net372
*338 net345
*339 net373
*340 net374
*341 net346
*342 net347
*343 net348
*344 net349
*345 net350
*346 net351
*347 net352
*348 wb_slave_mem_rdy
*349 wb_slave_mem_re
*350 wb_slave_mem_waddr[0]
*351 wb_slave_mem_waddr[10]
*352 wb_slave_mem_waddr[11]
*353 wb_slave_mem_waddr[12]
*354 wb_slave_mem_waddr[13]
*355 wb_slave_mem_waddr[14]
*356 wb_slave_mem_waddr[15]
*357 wb_slave_mem_waddr[16]
*358 wb_slave_mem_waddr[17]
*359 wb_slave_mem_waddr[18]
*360 wb_slave_mem_waddr[19]
*361 wb_slave_mem_waddr[1]
*362 wb_slave_mem_waddr[20]
*363 wb_slave_mem_waddr[21]
*364 wb_slave_mem_waddr[22]
*365 wb_slave_mem_waddr[23]
*366 wb_slave_mem_waddr[24]
*367 wb_slave_mem_waddr[25]
*368 wb_slave_mem_waddr[26]
*369 wb_slave_mem_waddr[27]
*370 wb_slave_mem_waddr[28]
*371 wb_slave_mem_waddr[29]
*372 wb_slave_mem_waddr[2]
*373 wb_slave_mem_waddr[30]
*374 wb_slave_mem_waddr[31]
*375 wb_slave_mem_waddr[3]
*376 wb_slave_mem_waddr[4]
*377 wb_slave_mem_waddr[5]
*378 wb_slave_mem_waddr[6]
*379 wb_slave_mem_waddr[7]
*380 wb_slave_mem_waddr[8]
*381 wb_slave_mem_waddr[9]
*382 wb_slave_mem_wdata[0]
*383 wb_slave_mem_wdata[10]
*384 wb_slave_mem_wdata[11]
*385 wb_slave_mem_wdata[12]
*386 wb_slave_mem_wdata[13]
*387 wb_slave_mem_wdata[14]
*388 wb_slave_mem_wdata[15]
*389 wb_slave_mem_wdata[16]
*390 wb_slave_mem_wdata[17]
*391 wb_slave_mem_wdata[18]
*392 wb_slave_mem_wdata[19]
*393 wb_slave_mem_wdata[1]
*394 wb_slave_mem_wdata[20]
*395 wb_slave_mem_wdata[21]
*396 wb_slave_mem_wdata[22]
*397 wb_slave_mem_wdata[23]
*398 wb_slave_mem_wdata[24]
*399 wb_slave_mem_wdata[25]
*400 wb_slave_mem_wdata[26]
*401 wb_slave_mem_wdata[27]
*402 wb_slave_mem_wdata[28]
*403 wb_slave_mem_wdata[29]
*404 wb_slave_mem_wdata[2]
*405 wb_slave_mem_wdata[30]
*406 wb_slave_mem_wdata[31]
*407 wb_slave_mem_wdata[3]
*408 wb_slave_mem_wdata[4]
*409 wb_slave_mem_wdata[5]
*410 wb_slave_mem_wdata[6]
*411 wb_slave_mem_wdata[7]
*412 wb_slave_mem_wdata[8]
*413 wb_slave_mem_wdata[9]
*414 wb_slave_mem_we
*415 wb_slave_mem_wmask[0]
*416 wb_slave_mem_wmask[1]
*417 wb_slave_mem_wmask[2]
*418 wb_slave_mem_wmask[3]
*419 wb_slave_mem_wr_data_ack
*420 wb_slave_up_en
*421 _0000_
*422 _0001_
*423 _0002_
*424 _0003_
*425 _0004_
*426 _0005_
*427 _0006_
*428 _0007_
*429 _0008_
*430 _0009_
*431 _0010_
*432 _0011_
*433 _0012_
*434 _0013_
*435 _0014_
*436 _0015_
*437 _0016_
*438 _0017_
*439 _0018_
*440 _0019_
*441 _0020_
*442 _0021_
*443 _0022_
*444 _0023_
*445 _0024_
*446 _0025_
*447 _0026_
*448 _0027_
*449 _0028_
*450 _0029_
*451 _0030_
*452 _0031_
*453 _0032_
*454 _0033_
*455 _0034_
*456 _0035_
*457 _0036_
*458 _0037_
*459 _0038_
*460 _0039_
*461 _0040_
*462 _0041_
*463 _0042_
*464 _0043_
*465 _0044_
*466 _0045_
*467 _0046_
*468 _0047_
*469 _0048_
*470 _0049_
*471 _0050_
*472 _0051_
*473 _0052_
*474 _0053_
*475 _0054_
*476 _0055_
*477 _0056_
*478 _0057_
*479 _0058_
*480 _0059_
*481 _0060_
*482 _0061_
*483 _0062_
*484 _0063_
*485 _0064_
*486 _0065_
*487 _0066_
*488 _0067_
*489 _0068_
*490 _0069_
*491 _0070_
*492 _0071_
*493 _0072_
*494 _0073_
*495 _0074_
*496 _0075_
*497 _0076_
*498 _0077_
*499 _0078_
*500 _0079_
*501 _0080_
*502 _0081_
*503 _0082_
*504 _0083_
*505 _0084_
*506 _0085_
*507 _0086_
*508 _0087_
*509 _0088_
*510 _0089_
*511 _0090_
*512 _0091_
*513 _0092_
*514 _0093_
*515 _0094_
*516 _0095_
*517 _0096_
*518 _0097_
*519 _0098_
*520 _0099_
*521 _0100_
*522 _0101_
*523 _0102_
*524 _0103_
*525 _0104_
*526 _0105_
*527 _0106_
*528 _0107_
*529 _0108_
*530 _0109_
*531 _0110_
*532 _0111_
*533 _0112_
*534 _0113_
*535 _0114_
*536 _0115_
*537 _0116_
*538 _0117_
*539 _0118_
*540 _0119_
*541 _0120_
*542 _0121_
*543 _0122_
*544 _0123_
*545 _0124_
*546 _0125_
*547 _0126_
*548 _0127_
*549 _0128_
*550 _0129_
*551 _0130_
*552 _0131_
*553 _0132_
*554 _0133_
*555 _0134_
*556 _0135_
*557 _0136_
*558 _0137_
*559 _0138_
*560 _0139_
*561 _0140_
*562 _0141_
*563 _0142_
*564 _0143_
*565 _0144_
*566 _0145_
*567 _0146_
*568 _0147_
*569 _0148_
*570 _0149_
*571 _0150_
*572 _0151_
*573 _0152_
*574 _0153_
*575 _0154_
*576 _0155_
*577 _0156_
*578 _0157_
*579 _0158_
*580 _0159_
*581 _0160_
*582 _0161_
*583 _0162_
*584 _0163_
*585 _0164_
*586 _0165_
*587 _0166_
*588 _0167_
*589 _0168_
*590 _0169_
*591 _0170_
*592 _0171_
*593 _0172_
*594 _0173_
*595 _0174_
*596 _0175_
*597 _0176_
*598 _0177_
*599 _0178_
*600 _0179_
*601 _0180_
*602 _0181_
*603 _0182_
*604 _0183_
*605 _0184_
*606 _0185_
*607 _0186_
*608 _0187_
*609 _0188_
*610 _0189_
*611 _0190_
*612 _0191_
*613 _0192_
*614 _0193_
*615 _0194_
*616 _0195_
*617 _0196_
*618 _0197_
*619 _0198_
*620 _0199_
*621 _0200_
*622 _0201_
*623 _0202_
*624 _0203_
*625 _0204_
*626 _0205_
*627 _0206_
*628 _0207_
*629 _0208_
*630 _0209_
*631 _0210_
*632 _0211_
*633 _0212_
*634 _0213_
*635 _0214_
*636 _0215_
*637 _0216_
*638 _0217_
*639 _0218_
*640 _0219_
*641 _0220_
*642 _0221_
*643 _0222_
*644 _0223_
*645 _0224_
*646 _0225_
*647 _0226_
*648 _0227_
*649 _0228_
*650 _0229_
*651 _0230_
*652 _0231_
*653 _0232_
*654 _0233_
*655 _0234_
*656 _0235_
*657 _0236_
*658 _0237_
*659 _0238_
*660 _0239_
*661 _0240_
*662 _0241_
*663 _0242_
*664 _0243_
*665 _0244_
*666 _0245_
*667 _0246_
*668 _0247_
*669 _0248_
*670 _0249_
*671 _0250_
*672 _0251_
*673 _0252_
*674 _0253_
*675 _0254_
*676 _0255_
*677 _0256_
*678 _0257_
*679 _0258_
*680 _0259_
*681 _0260_
*682 _0261_
*683 _0262_
*684 _0263_
*685 _0264_
*686 _0265_
*687 _0266_
*688 _0267_
*689 _0268_
*690 _0269_
*691 _0270_
*692 _0271_
*693 _0272_
*694 _0273_
*695 _0274_
*696 _0275_
*697 _0276_
*698 _0277_
*699 _0278_
*700 _0279_
*701 _0280_
*702 _0281_
*703 _0282_
*704 _0283_
*705 _0284_
*706 _0285_
*707 _0286_
*708 _0287_
*709 _0288_
*710 _0289_
*711 _0290_
*712 _0291_
*713 _0292_
*714 _0293_
*715 _0294_
*716 _0295_
*717 _0296_
*718 _0297_
*719 _0298_
*720 _0299_
*721 _0300_
*722 _0301_
*723 _0302_
*724 _0303_
*725 _0304_
*726 _0305_
*727 _0306_
*728 _0307_
*729 _0308_
*730 _0309_
*731 _0310_
*732 _0311_
*733 _0312_
*734 _0313_
*735 _0314_
*736 _0315_
*737 _0316_
*738 _0317_
*739 _0318_
*740 _0319_
*741 _0320_
*742 _0321_
*743 _0322_
*744 _0323_
*745 _0324_
*746 _0325_
*747 _0326_
*748 _0327_
*749 _0328_
*750 _0329_
*751 _0330_
*752 _0331_
*753 _0332_
*754 _0333_
*755 _0334_
*756 _0335_
*757 _0336_
*758 _0337_
*759 _0338_
*760 _0339_
*761 _0340_
*762 _0341_
*763 _0342_
*764 _0343_
*765 _0344_
*766 _0345_
*767 _0346_
*768 _0347_
*769 _0348_
*770 _0349_
*771 _0350_
*772 _0351_
*773 _0352_
*774 _0353_
*775 _0354_
*776 _0355_
*777 _0356_
*778 _0357_
*779 _0358_
*780 _0359_
*781 _0360_
*782 _0361_
*783 _0362_
*784 _0363_
*785 _0364_
*786 _0365_
*787 _0366_
*788 _0367_
*789 _0368_
*790 _0369_
*791 _0370_
*792 _0371_
*793 _0372_
*794 _0373_
*795 _0374_
*796 _0375_
*797 _0376_
*798 _0377_
*799 _0378_
*800 _0379_
*801 _0380_
*802 _0381_
*803 _0382_
*804 _0383_
*805 _0384_
*806 _0385_
*807 _0386_
*808 _0387_
*809 _0388_
*810 _0389_
*811 _0390_
*812 _0391_
*813 _0392_
*814 _0393_
*815 _0394_
*816 _0395_
*817 _0396_
*818 _0397_
*819 _0398_
*820 _0399_
*821 _0400_
*822 _0401_
*823 _0402_
*824 _0403_
*825 _0404_
*826 _0405_
*827 _0406_
*828 _0407_
*829 _0408_
*830 _0409_
*831 _0410_
*832 clknet_0_clk
*833 clknet_4_0_0_clk
*834 clknet_4_10_0_clk
*835 clknet_4_11_0_clk
*836 clknet_4_12_0_clk
*837 clknet_4_13_0_clk
*838 clknet_4_14_0_clk
*839 clknet_4_15_0_clk
*840 clknet_4_1_0_clk
*841 clknet_4_2_0_clk
*842 clknet_4_3_0_clk
*843 clknet_4_4_0_clk
*844 clknet_4_5_0_clk
*845 clknet_4_6_0_clk
*846 clknet_4_7_0_clk
*847 clknet_4_8_0_clk
*848 clknet_4_9_0_clk
*849 net1
*850 net10
*851 net100
*852 net101
*853 net102
*854 net103
*855 net104
*856 net105
*857 net106
*858 net107
*859 net108
*860 net109
*861 net11
*862 net110
*863 net111
*864 net112
*865 net113
*866 net114
*867 net115
*868 net116
*869 net117
*870 net118
*871 net119
*872 net12
*873 net120
*874 net121
*875 net122
*876 net123
*877 net124
*878 net125
*879 net126
*880 net127
*881 net128
*882 net129
*883 net13
*884 net130
*885 net131
*886 net132
*887 net133
*888 net134
*889 net135
*890 net136
*891 net137
*892 net138
*893 net139
*894 net14
*895 net140
*896 net141
*897 net142
*898 net143
*899 net144
*900 net145
*901 net146
*902 net147
*903 net148
*904 net149
*905 net15
*906 net150
*907 net151
*908 net152
*909 net153
*910 net154
*911 net155
*912 net156
*913 net157
*914 net158
*915 net159
*916 net16
*917 net160
*918 net161
*919 net162
*920 net163
*921 net164
*922 net165
*923 net166
*924 net167
*925 net168
*926 net169
*927 net17
*928 net170
*929 net171
*930 net172
*931 net173
*932 net174
*933 net175
*934 net176
*935 net177
*936 net178
*937 net179
*938 net18
*939 net180
*940 net181
*941 net182
*942 net183
*943 net184
*944 net185
*945 net186
*946 net187
*947 net188
*948 net189
*949 net19
*950 net190
*951 net191
*952 net192
*953 net193
*954 net194
*955 net195
*956 net196
*957 net197
*958 net198
*959 net199
*960 net2
*961 net20
*962 net200
*963 net201
*964 net202
*965 net203
*966 net204
*967 net205
*968 net206
*969 net207
*970 net208
*971 net209
*972 net21
*973 net210
*974 net211
*975 net212
*976 net213
*977 net214
*978 net215
*979 net216
*980 net217
*981 net218
*982 net219
*983 net22
*984 net220
*985 net221
*986 net222
*987 net223
*988 net224
*989 net225
*990 net226
*991 net227
*992 net228
*993 net229
*994 net23
*995 net230
*996 net231
*997 net232
*998 net233
*999 net234
*1000 net235
*1001 net236
*1002 net237
*1003 net238
*1004 net239
*1005 net24
*1006 net240
*1007 net241
*1008 net242
*1009 net243
*1010 net244
*1011 net245
*1012 net246
*1013 net247
*1014 net248
*1015 net249
*1016 net25
*1017 net250
*1018 net251
*1019 net252
*1020 net253
*1021 net254
*1022 net255
*1023 net256
*1024 net257
*1025 net258
*1026 net259
*1027 net26
*1028 net260
*1029 net261
*1030 net262
*1031 net263
*1032 net264
*1033 net265
*1034 net266
*1035 net267
*1036 net268
*1037 net269
*1038 net27
*1039 net270
*1040 net271
*1041 net272
*1042 net273
*1043 net274
*1044 net275
*1045 net276
*1046 net277
*1047 net278
*1048 net279
*1049 net28
*1050 net280
*1051 net281
*1052 net282
*1053 net283
*1054 net284
*1055 net285
*1056 net286
*1057 net287
*1058 net288
*1059 net289
*1060 net29
*1061 net290
*1062 net291
*1063 net292
*1064 net293
*1065 net294
*1066 net295
*1067 net296
*1068 net297
*1069 net298
*1070 net299
*1071 net3
*1072 net30
*1073 net300
*1074 net301
*1075 net302
*1076 net303
*1077 net304
*1078 net305
*1079 net306
*1080 net307
*1081 net308
*1082 net309
*1083 net31
*1084 net310
*1085 net311
*1086 net312
*1087 net313
*1088 net314
*1089 net315
*1090 net316
*1091 net317
*1092 net318
*1093 net319
*1094 net32
*1095 net33
*1096 net34
*1097 net35
*1098 net36
*1099 net37
*1100 net376
*1101 net377
*1102 net378
*1103 net379
*1104 net38
*1105 net380
*1106 net381
*1107 net382
*1108 net383
*1109 net384
*1110 net385
*1111 net386
*1112 net387
*1113 net388
*1114 net389
*1115 net39
*1116 net390
*1117 net391
*1118 net392
*1119 net393
*1120 net394
*1121 net395
*1122 net396
*1123 net397
*1124 net398
*1125 net399
*1126 net4
*1127 net40
*1128 net400
*1129 net401
*1130 net402
*1131 net403
*1132 net404
*1133 net405
*1134 net406
*1135 net407
*1136 net408
*1137 net409
*1138 net41
*1139 net410
*1140 net411
*1141 net412
*1142 net413
*1143 net414
*1144 net415
*1145 net416
*1146 net417
*1147 net418
*1148 net419
*1149 net42
*1150 net420
*1151 net421
*1152 net422
*1153 net423
*1154 net424
*1155 net425
*1156 net426
*1157 net427
*1158 net428
*1159 net429
*1160 net43
*1161 net430
*1162 net431
*1163 net432
*1164 net433
*1165 net434
*1166 net435
*1167 net436
*1168 net437
*1169 net438
*1170 net439
*1171 net44
*1172 net440
*1173 net441
*1174 net442
*1175 net443
*1176 net444
*1177 net445
*1178 net446
*1179 net447
*1180 net448
*1181 net449
*1182 net45
*1183 net450
*1184 net451
*1185 net452
*1186 net453
*1187 net454
*1188 net455
*1189 net456
*1190 net457
*1191 net458
*1192 net459
*1193 net46
*1194 net460
*1195 net461
*1196 net462
*1197 net463
*1198 net464
*1199 net465
*1200 net466
*1201 net467
*1202 net468
*1203 net469
*1204 net47
*1205 net470
*1206 net471
*1207 net472
*1208 net473
*1209 net474
*1210 net475
*1211 net476
*1212 net477
*1213 net478
*1214 net479
*1215 net48
*1216 net480
*1217 net481
*1218 net482
*1219 net483
*1220 net484
*1221 net485
*1222 net486
*1223 net487
*1224 net488
*1225 net489
*1226 net49
*1227 net490
*1228 net491
*1229 net492
*1230 net493
*1231 net494
*1232 net495
*1233 net496
*1234 net497
*1235 net498
*1236 net499
*1237 net5
*1238 net50
*1239 net500
*1240 net501
*1241 net502
*1242 net503
*1243 net504
*1244 net505
*1245 net506
*1246 net507
*1247 net508
*1248 net509
*1249 net51
*1250 net510
*1251 net511
*1252 net512
*1253 net513
*1254 net514
*1255 net515
*1256 net516
*1257 net517
*1258 net518
*1259 net519
*1260 net52
*1261 net520
*1262 net521
*1263 net522
*1264 net523
*1265 net524
*1266 net525
*1267 net526
*1268 net527
*1269 net528
*1270 net529
*1271 net53
*1272 net54
*1273 net55
*1274 net56
*1275 net57
*1276 net58
*1277 net59
*1278 net6
*1279 net60
*1280 net61
*1281 net62
*1282 net63
*1283 net64
*1284 net65
*1285 net66
*1286 net67
*1287 net68
*1288 net69
*1289 net7
*1290 net70
*1291 net71
*1292 net72
*1293 net73
*1294 net74
*1295 net75
*1296 net76
*1297 net77
*1298 net78
*1299 net79
*1300 net8
*1301 net80
*1302 net81
*1303 net82
*1304 net83
*1305 net84
*1306 net85
*1307 net86
*1308 net87
*1309 net88
*1310 net89
*1311 net9
*1312 net90
*1313 net91
*1314 net92
*1315 net93
*1316 net94
*1317 net95
*1318 net96
*1319 net97
*1320 net98
*1321 net99
*1322 ANTENNA_1
*1323 ANTENNA_2
*1324 ANTENNA_3
*1325 ANTENNA__0411__A
*1326 ANTENNA__0412__Y
*1327 ANTENNA__0413__A
*1328 ANTENNA__0414__A
*1329 ANTENNA__0418__A
*1330 ANTENNA__0419__A
*1331 ANTENNA__0420__D
*1332 ANTENNA__0421__B
*1333 ANTENNA__0421__D
*1334 ANTENNA__0431__X
*1335 ANTENNA__0435__X
*1336 ANTENNA__0436__A
*1337 ANTENNA__0436__B
*1338 ANTENNA__0436__C
*1339 ANTENNA__0439__A
*1340 ANTENNA__0439__B
*1341 ANTENNA__0439__X
*1342 ANTENNA__0440__Y
*1343 ANTENNA__0441__A
*1344 ANTENNA__0442__B
*1345 ANTENNA__0443__A
*1346 ANTENNA__0443__B
*1347 ANTENNA__0443__X
*1348 ANTENNA__0444__A1
*1349 ANTENNA__0444__S
*1350 ANTENNA__0445__S
*1351 ANTENNA__0446__A1
*1352 ANTENNA__0446__S
*1353 ANTENNA__0447__A0
*1354 ANTENNA__0447__S
*1355 ANTENNA__0448__A1
*1356 ANTENNA__0448__S
*1357 ANTENNA__0449__S
*1358 ANTENNA__0450__A1
*1359 ANTENNA__0450__S
*1360 ANTENNA__0451__A0
*1361 ANTENNA__0451__S
*1362 ANTENNA__0452__A1
*1363 ANTENNA__0452__S
*1364 ANTENNA__0453__A0
*1365 ANTENNA__0453__S
*1366 ANTENNA__0454__A1
*1367 ANTENNA__0454__S
*1368 ANTENNA__0455__A0
*1369 ANTENNA__0455__S
*1370 ANTENNA__0456__S
*1371 ANTENNA__0457__S
*1372 ANTENNA__0458__A1
*1373 ANTENNA__0458__S
*1374 ANTENNA__0459__A0
*1375 ANTENNA__0459__S
*1376 ANTENNA__0460__S
*1377 ANTENNA__0461__S
*1378 ANTENNA__0462__S
*1379 ANTENNA__0463__S
*1380 ANTENNA__0464__S
*1381 ANTENNA__0465__S
*1382 ANTENNA__0466__S
*1383 ANTENNA__0467__S
*1384 ANTENNA__0468__S
*1385 ANTENNA__0469__S
*1386 ANTENNA__0470__S
*1387 ANTENNA__0471__S
*1388 ANTENNA__0472__A1
*1389 ANTENNA__0472__S
*1390 ANTENNA__0473__A0
*1391 ANTENNA__0473__S
*1392 ANTENNA__0474__S
*1393 ANTENNA__0475__S
*1394 ANTENNA__0476__B
*1395 ANTENNA__0477__Y
*1396 ANTENNA__0478__X
*1397 ANTENNA__0479__A
*1398 ANTENNA__0479__X
*1399 ANTENNA__0480__A
*1400 ANTENNA__0480__C
*1401 ANTENNA__0480__D
*1402 ANTENNA__0480__X
*1403 ANTENNA__0481__A
*1404 ANTENNA__0481__B
*1405 ANTENNA__0481__C_N
*1406 ANTENNA__0484__A
*1407 ANTENNA__0484__B
*1408 ANTENNA__0484__X
*1409 ANTENNA__0485__A1
*1410 ANTENNA__0485__S
*1411 ANTENNA__0488__A
*1412 ANTENNA__0488__B
*1413 ANTENNA__0488__X
*1414 ANTENNA__0489__A
*1415 ANTENNA__0489__B
*1416 ANTENNA__0489__C
*1417 ANTENNA__0490__A1
*1418 ANTENNA__0490__S
*1419 ANTENNA__0491__A0
*1420 ANTENNA__0491__A1
*1421 ANTENNA__0491__S
*1422 ANTENNA__0492__A1
*1423 ANTENNA__0492__S
*1424 ANTENNA__0493__A1
*1425 ANTENNA__0493__S
*1426 ANTENNA__0494__A1
*1427 ANTENNA__0494__S
*1428 ANTENNA__0495__A1
*1429 ANTENNA__0495__S
*1430 ANTENNA__0496__A1
*1431 ANTENNA__0496__S
*1432 ANTENNA__0497__A1
*1433 ANTENNA__0497__S
*1434 ANTENNA__0498__S
*1435 ANTENNA__0499__A1
*1436 ANTENNA__0499__S
*1437 ANTENNA__0500__A1
*1438 ANTENNA__0500__S
*1439 ANTENNA__0501__A1
*1440 ANTENNA__0501__S
*1441 ANTENNA__0502__A2
*1442 ANTENNA__0502__B1
*1443 ANTENNA__0503__A1
*1444 ANTENNA__0503__S
*1445 ANTENNA__0504__A
*1446 ANTENNA__0504__B
*1447 ANTENNA__0505__A1
*1448 ANTENNA__0505__B2
*1449 ANTENNA__0506__A1
*1450 ANTENNA__0506__S
*1451 ANTENNA__0507__A2
*1452 ANTENNA__0507__B1
*1453 ANTENNA__0508__A0
*1454 ANTENNA__0508__A1
*1455 ANTENNA__0508__S
*1456 ANTENNA__0509__A
*1457 ANTENNA__0509__B
*1458 ANTENNA__0510__A1
*1459 ANTENNA__0510__B2
*1460 ANTENNA__0511__A1
*1461 ANTENNA__0511__S
*1462 ANTENNA__0512__A1
*1463 ANTENNA__0512__A2
*1464 ANTENNA__0512__B1
*1465 ANTENNA__0513__A1
*1466 ANTENNA__0513__S
*1467 ANTENNA__0514__A1
*1468 ANTENNA__0514__A2
*1469 ANTENNA__0515__S
*1470 ANTENNA__0516__A2
*1471 ANTENNA__0516__B1
*1472 ANTENNA__0517__A1
*1473 ANTENNA__0517__S
*1474 ANTENNA__0518__A1
*1475 ANTENNA__0518__A2
*1476 ANTENNA__0518__B1
*1477 ANTENNA__0519__A0
*1478 ANTENNA__0519__S
*1479 ANTENNA__0520__A2
*1480 ANTENNA__0520__B1
*1481 ANTENNA__0521__A0
*1482 ANTENNA__0521__S
*1483 ANTENNA__0522__A2
*1484 ANTENNA__0522__B1
*1485 ANTENNA__0523__S
*1486 ANTENNA__0524__A2
*1487 ANTENNA__0525__S
*1488 ANTENNA__0526__A2
*1489 ANTENNA__0526__B1
*1490 ANTENNA__0527__S
*1491 ANTENNA__0528__A2
*1492 ANTENNA__0529__S
*1493 ANTENNA__0530__A2
*1494 ANTENNA__0530__B1
*1495 ANTENNA__0531__A1
*1496 ANTENNA__0531__S
*1497 ANTENNA__0532__A1
*1498 ANTENNA__0532__A2
*1499 ANTENNA__0532__B1
*1500 ANTENNA__0533__S
*1501 ANTENNA__0534__S
*1502 ANTENNA__0535__A
*1503 ANTENNA__0535__B
*1504 ANTENNA__0535__D_N
*1505 ANTENNA__0536__A
*1506 ANTENNA__0536__B
*1507 ANTENNA__0536__X
*1508 ANTENNA__0537__B
*1509 ANTENNA__0537__C
*1510 ANTENNA__0538__B
*1511 ANTENNA__0538__D
*1512 ANTENNA__0538__X
*1513 ANTENNA__0539__A1
*1514 ANTENNA__0539__S
*1515 ANTENNA__0540__A0
*1516 ANTENNA__0540__S
*1517 ANTENNA__0541__A1
*1518 ANTENNA__0541__S
*1519 ANTENNA__0542__A
*1520 ANTENNA__0542__B
*1521 ANTENNA__0543__A0
*1522 ANTENNA__0543__S
*1523 ANTENNA__0544__A1
*1524 ANTENNA__0544__S
*1525 ANTENNA__0545__A0
*1526 ANTENNA__0545__S
*1527 ANTENNA__0546__A1
*1528 ANTENNA__0546__S
*1529 ANTENNA__0547__A0
*1530 ANTENNA__0547__S
*1531 ANTENNA__0548__A1
*1532 ANTENNA__0548__S
*1533 ANTENNA__0549__S
*1534 ANTENNA__0550__A1
*1535 ANTENNA__0550__S
*1536 ANTENNA__0551__A0
*1537 ANTENNA__0551__S
*1538 ANTENNA__0552__A1
*1539 ANTENNA__0552__S
*1540 ANTENNA__0553__S
*1541 ANTENNA__0554__A1
*1542 ANTENNA__0554__S
*1543 ANTENNA__0555__A0
*1544 ANTENNA__0555__S
*1545 ANTENNA__0556__A1
*1546 ANTENNA__0556__S
*1547 ANTENNA__0557__S
*1548 ANTENNA__0558__A1
*1549 ANTENNA__0558__S
*1550 ANTENNA__0559__A0
*1551 ANTENNA__0559__S
*1552 ANTENNA__0560__A1
*1553 ANTENNA__0560__S
*1554 ANTENNA__0561__A0
*1555 ANTENNA__0561__S
*1556 ANTENNA__0562__A
*1557 ANTENNA__0562__B
*1558 ANTENNA__0562__C
*1559 ANTENNA__0563__A
*1560 ANTENNA__0563__B
*1561 ANTENNA__0563__X
*1562 ANTENNA__0564__A_N
*1563 ANTENNA__0564__X
*1564 ANTENNA__0565__A
*1565 ANTENNA__0565__C
*1566 ANTENNA__0565__X
*1567 ANTENNA__0566__A1
*1568 ANTENNA__0566__S
*1569 ANTENNA__0567__A0
*1570 ANTENNA__0567__S
*1571 ANTENNA__0568__A1
*1572 ANTENNA__0568__S
*1573 ANTENNA__0569__A0
*1574 ANTENNA__0569__S
*1575 ANTENNA__0570__A1
*1576 ANTENNA__0570__S
*1577 ANTENNA__0571__A0
*1578 ANTENNA__0571__S
*1579 ANTENNA__0572__A1
*1580 ANTENNA__0572__S
*1581 ANTENNA__0573__A0
*1582 ANTENNA__0573__S
*1583 ANTENNA__0574__A1
*1584 ANTENNA__0574__S
*1585 ANTENNA__0575__S
*1586 ANTENNA__0576__A1
*1587 ANTENNA__0576__S
*1588 ANTENNA__0577__A0
*1589 ANTENNA__0577__S
*1590 ANTENNA__0578__A1
*1591 ANTENNA__0578__S
*1592 ANTENNA__0579__S
*1593 ANTENNA__0580__A1
*1594 ANTENNA__0580__S
*1595 ANTENNA__0581__A0
*1596 ANTENNA__0581__S
*1597 ANTENNA__0582__A1
*1598 ANTENNA__0582__S
*1599 ANTENNA__0583__S
*1600 ANTENNA__0584__A1
*1601 ANTENNA__0584__S
*1602 ANTENNA__0585__A0
*1603 ANTENNA__0585__S
*1604 ANTENNA__0586__A1
*1605 ANTENNA__0586__S
*1606 ANTENNA__0587__A0
*1607 ANTENNA__0587__S
*1608 ANTENNA__0588__A
*1609 ANTENNA__0588__B
*1610 ANTENNA__0588__X
*1611 ANTENNA__0589__B
*1612 ANTENNA__0589__X
*1613 ANTENNA__0590__A1
*1614 ANTENNA__0590__S
*1615 ANTENNA__0591__A0
*1616 ANTENNA__0591__S
*1617 ANTENNA__0592__A1
*1618 ANTENNA__0592__S
*1619 ANTENNA__0593__A0
*1620 ANTENNA__0593__S
*1621 ANTENNA__0594__A1
*1622 ANTENNA__0594__S
*1623 ANTENNA__0595__A0
*1624 ANTENNA__0595__S
*1625 ANTENNA__0596__A1
*1626 ANTENNA__0596__S
*1627 ANTENNA__0597__A0
*1628 ANTENNA__0597__S
*1629 ANTENNA__0598__B
*1630 ANTENNA__0598__C
*1631 ANTENNA__0599__A1
*1632 ANTENNA__0599__A2
*1633 ANTENNA__0600__B
*1634 ANTENNA__0600__D_N
*1635 ANTENNA__0600__X
*1636 ANTENNA__0601__B1_N
*1637 ANTENNA__0602__C
*1638 ANTENNA__0603__A1
*1639 ANTENNA__0603__A2
*1640 ANTENNA__0604__A_N
*1641 ANTENNA__0604__X
*1642 ANTENNA__0605__C
*1643 ANTENNA__0605__D_N
*1644 ANTENNA__0605__X
*1645 ANTENNA__0607__A
*1646 ANTENNA__0607__B
*1647 ANTENNA__0607__D
*1648 ANTENNA__0608__A
*1649 ANTENNA__0608__B
*1650 ANTENNA__0608__X
*1651 ANTENNA__0609__A0
*1652 ANTENNA__0609__S
*1653 ANTENNA__0610__A
*1654 ANTENNA__0610__B
*1655 ANTENNA__0611__A
*1656 ANTENNA__0611__B
*1657 ANTENNA__0611__C
*1658 ANTENNA__0611__Y
*1659 ANTENNA__0612__A1
*1660 ANTENNA__0612__A2
*1661 ANTENNA__0612__B2
*1662 ANTENNA__0613__A0
*1663 ANTENNA__0613__A1
*1664 ANTENNA__0613__S
*1665 ANTENNA__0614__A1
*1666 ANTENNA__0614__A2
*1667 ANTENNA__0614__B1
*1668 ANTENNA__0615__A0
*1669 ANTENNA__0615__S
*1670 ANTENNA__0616__A1
*1671 ANTENNA__0616__A2
*1672 ANTENNA__0616__B1
*1673 ANTENNA__0617__A0
*1674 ANTENNA__0617__S
*1675 ANTENNA__0618__A1
*1676 ANTENNA__0618__A2
*1677 ANTENNA__0618__B1
*1678 ANTENNA__0619__A0
*1679 ANTENNA__0619__S
*1680 ANTENNA__0620__A2
*1681 ANTENNA__0620__B1
*1682 ANTENNA__0621__A0
*1683 ANTENNA__0621__S
*1684 ANTENNA__0622__A1
*1685 ANTENNA__0622__A2
*1686 ANTENNA__0622__B1
*1687 ANTENNA__0623__A0
*1688 ANTENNA__0623__S
*1689 ANTENNA__0624__A2
*1690 ANTENNA__0624__B1
*1691 ANTENNA__0625__A0
*1692 ANTENNA__0625__S
*1693 ANTENNA__0626__A1
*1694 ANTENNA__0626__A2
*1695 ANTENNA__0626__B1
*1696 ANTENNA__0627__A0
*1697 ANTENNA__0627__S
*1698 ANTENNA__0628__A2
*1699 ANTENNA__0628__B1
*1700 ANTENNA__0629__A0
*1701 ANTENNA__0629__A1
*1702 ANTENNA__0629__S
*1703 ANTENNA__0630__A1
*1704 ANTENNA__0630__A2
*1705 ANTENNA__0630__B1
*1706 ANTENNA__0631__A0
*1707 ANTENNA__0631__S
*1708 ANTENNA__0632__A1
*1709 ANTENNA__0632__A2
*1710 ANTENNA__0632__B1
*1711 ANTENNA__0633__A0
*1712 ANTENNA__0633__S
*1713 ANTENNA__0634__A1
*1714 ANTENNA__0634__A2
*1715 ANTENNA__0634__B1