*SPEF "ieee 1481-1999"
*DESIGN "mask_generator"
*DATE "03:37:44 Thursday March 26, 2026"
*VENDOR "The OpenROAD Project"
*PROGRAM "OpenROAD"
*VERSION "edf00dff99f6c40d67a30c0e22a8191c5d2ed9d6"
*DESIGN_FLOW "NAME_SCOPE LOCAL" "PIN_CAP NONE"
*DIVIDER /
*DELIMITER :
*BUS_DELIMITER []
*T_UNIT 1 NS
*C_UNIT 1 PF
*R_UNIT 1 OHM
*L_UNIT 1 HENRY

*NAME_MAP
*1 arst_n
*2 busy
*3 clk
*4 done
*5 obj_height[0]
*6 obj_height[10]
*7 obj_height[1]
*8 obj_height[2]
*9 obj_height[3]
*10 obj_height[4]
*11 obj_height[5]
*12 obj_height[6]
*13 obj_height[7]
*14 obj_height[8]
*15 obj_height[9]
*16 obj_st_mask[0]
*17 obj_st_mask[10]
*18 obj_st_mask[11]
*19 obj_st_mask[12]
*20 obj_st_mask[13]
*21 obj_st_mask[14]
*22 obj_st_mask[15]
*23 obj_st_mask[16]
*24 obj_st_mask[17]
*25 obj_st_mask[18]
*26 obj_st_mask[19]
*27 obj_st_mask[1]
*28 obj_st_mask[20]
*29 obj_st_mask[21]
*30 obj_st_mask[2]
*31 obj_st_mask[3]
*32 obj_st_mask[4]
*33 obj_st_mask[5]
*34 obj_st_mask[6]
*35 obj_st_mask[7]
*36 obj_st_mask[8]
*37 obj_st_mask[9]
*38 obj_st_pix[0]
*39 obj_st_pix[10]
*40 obj_st_pix[11]
*41 obj_st_pix[12]
*42 obj_st_pix[13]
*43 obj_st_pix[14]
*44 obj_st_pix[15]
*45 obj_st_pix[16]
*46 obj_st_pix[17]
*47 obj_st_pix[18]
*48 obj_st_pix[19]
*49 obj_st_pix[1]
*50 obj_st_pix[20]
*51 obj_st_pix[21]
*52 obj_st_pix[2]
*53 obj_st_pix[3]
*54 obj_st_pix[4]
*55 obj_st_pix[5]
*56 obj_st_pix[6]
*57 obj_st_pix[7]
*58 obj_st_pix[8]
*59 obj_st_pix[9]
*60 obj_type[0]
*61 obj_type[1]
*62 obj_type[2]
*63 obj_type[3]
*64 obj_value[0]
*65 obj_value[10]
*66 obj_value[11]
*67 obj_value[12]
*68 obj_value[13]
*69 obj_value[14]
*70 obj_value[1]
*71 obj_value[2]
*72 obj_value[3]
*73 obj_value[4]
*74 obj_value[5]
*75 obj_value[6]
*76 obj_value[7]
*77 obj_value[8]
*78 obj_value[9]
*79 obj_width[0]
*80 obj_width[10]
*81 obj_width[1]
*82 obj_width[2]
*83 obj_width[3]
*84 obj_width[4]
*85 obj_width[5]
*86 obj_width[6]
*87 obj_width[7]
*88 obj_width[8]
*89 obj_width[9]
*90 ostate[0]
*91 ostate[1]
*92 ostate[2]
*93 ostate[3]
*94 rd_buff_empty
*95 rd_buff_rdata[0]
*96 rd_buff_rdata[1]
*97 rd_buff_rdata[2]
*98 rd_buff_rdata[3]
*99 rd_buff_rdata[4]
*100 rd_buff_rdata[5]
*101 rd_buff_rdata[6]
*102 rd_buff_rdata[7]
*103 rd_buff_rden
*104 rpg_ack
*105 rpg_burst_length[0]
*106 rpg_burst_length[1]
*107 rpg_burst_length[2]
*108 rpg_burst_length[3]
*109 rpg_burst_length[4]
*110 rpg_burst_length[5]
*111 rpg_burst_length[6]
*112 rpg_burst_length[7]
*113 rpg_burst_length[8]
*114 rpg_burst_length[9]
*115 rpg_busy
*116 rpg_st_addr[0]
*117 rpg_st_addr[1]
*118 rpg_st_addr[2]
*119 rpg_st_addr[3]
*120 rpg_st_addr[4]
*121 rpg_st_addr[5]
*122 rpg_st_addr[6]
*123 rpg_st_addr[7]
*124 rpg_st_addr[8]
*125 rpg_st_addr[9]
*126 start
*129 wpg_ack
*130 wpg_burst_length[0]
*131 wpg_burst_length[1]
*132 wpg_burst_length[2]
*133 wpg_burst_length[3]
*134 wpg_burst_length[4]
*135 wpg_burst_length[5]
*136 wpg_burst_length[6]
*137 wpg_burst_length[7]
*138 wpg_burst_length[8]
*139 wpg_burst_length[9]
*140 wpg_busy
*141 wpg_st_addr[0]
*142 wpg_st_addr[1]
*143 wpg_st_addr[2]
*144 wpg_st_addr[3]
*145 wpg_st_addr[4]
*146 wpg_st_addr[5]
*147 wpg_st_addr[6]
*148 wpg_st_addr[7]
*149 wpg_st_addr[8]
*150 wpg_st_addr[9]
*151 wr_buff_full
*152 wr_buff_wdata[0]
*153 wr_buff_wdata[1]
*154 wr_buff_wdata[2]
*155 wr_buff_wdata[3]
*156 wr_buff_wdata[4]
*157 wr_buff_wdata[5]
*158 wr_buff_wdata[6]
*159 wr_buff_wdata[7]
*160 wr_buff_wren
*161 _0000_
*162 _0001_
*163 _0002_
*164 _0003_
*165 _0004_
*166 _0005_
*167 _0006_
*168 _0007_
*169 _0008_
*170 _0009_
*171 _0010_
*172 _0011_
*173 _0012_
*174 _0013_
*175 _0014_
*176 _0015_
*177 _0016_
*178 _0017_
*179 _0018_
*180 _0019_
*181 _0020_
*182 _0021_
*183 _0022_
*184 _0023_
*185 _0024_
*186 _0025_
*187 _0026_
*188 _0027_
*189 _0028_
*190 _0029_
*191 _0030_
*192 _0031_
*193 _0032_
*194 _0033_
*195 _0034_
*196 _0035_
*197 _0036_
*198 _0037_
*199 _0038_
*200 _0039_
*201 _0040_
*202 _0041_
*203 _0042_
*204 _0043_
*205 _0044_
*206 _0045_
*207 _0046_
*208 _0047_
*209 _0048_
*210 _0049_
*211 _0050_
*212 _0051_
*213 _0052_
*214 _0053_
*215 _0054_
*216 _0055_
*217 _0056_
*218 _0057_
*219 _0058_
*220 _0059_
*221 _0060_
*222 _0061_
*223 _0062_
*224 _0063_
*225 _0064_
*226 _0065_
*227 _0066_
*228 _0067_
*229 _0068_
*230 _0069_
*231 _0070_
*232 _0071_
*233 _0072_
*234 _0073_
*235 _0074_
*236 _0075_
*237 _0076_
*238 _0077_
*239 _0078_
*240 _0079_
*241 _0080_
*242 _0081_
*243 _0082_
*244 _0083_
*245 _0084_
*246 _0085_
*247 _0086_
*248 _0087_
*249 _0088_
*250 _0089_
*251 _0090_
*252 _0091_
*253 _0092_
*254 _0093_
*255 _0094_
*256 _0095_
*257 _0096_
*258 _0097_
*259 _0098_
*260 _0099_
*261 _0100_
*262 _0101_
*263 _0102_
*264 _0103_
*265 _0104_
*266 _0105_
*267 _0106_
*268 _0107_
*269 _0108_
*270 _0109_
*271 _0110_
*272 _0111_
*273 _0112_
*274 _0113_
*275 _0114_
*276 _0115_
*277 _0116_
*278 _0117_
*279 _0118_
*280 _0119_
*281 _0120_
*282 _0121_
*283 _0122_
*284 _0123_
*285 _0124_
*286 _0125_
*287 _0126_
*288 _0127_
*289 _0128_
*290 _0129_
*291 _0130_
*292 _0131_
*293 _0132_
*294 _0133_
*295 _0134_
*296 _0135_
*297 _0136_
*298 _0137_
*299 _0138_
*300 _0139_
*301 _0140_
*302 _0141_
*303 _0142_
*304 _0143_
*305 _0144_
*306 _0145_
*307 _0146_
*308 _0147_
*309 _0148_
*310 _0149_
*311 _0150_
*312 _0151_
*313 _0152_
*314 _0153_
*315 _0154_
*316 _0155_
*317 _0156_
*318 _0157_
*319 _0158_
*320 _0159_
*321 _0160_
*322 _0161_
*323 _0162_
*324 _0163_
*325 _0164_
*326 _0165_
*327 _0166_
*328 _0167_
*329 _0168_
*330 _0169_
*331 _0170_
*332 _0171_
*333 _0172_
*334 _0173_
*335 _0174_
*336 _0175_
*337 _0176_
*338 _0177_
*339 _0178_
*340 _0179_
*341 _0180_
*342 _0181_
*343 _0182_
*344 _0183_
*345 _0184_
*346 _0185_
*347 _0186_
*348 _0187_
*349 _0188_
*350 _0189_
*351 _0190_
*352 _0191_
*353 _0192_
*354 _0193_
*355 _0194_
*356 _0195_
*357 _0196_
*358 _0197_
*359 _0198_
*360 _0199_
*361 _0200_
*362 _0201_
*363 _0202_
*364 _0203_
*365 _0204_
*366 _0205_
*367 _0206_
*368 _0207_
*369 _0208_
*370 _0209_
*371 _0210_
*372 _0211_
*373 _0212_
*374 _0213_
*375 _0214_
*376 _0215_
*377 _0216_
*378 _0217_
*379 _0218_
*380 _0219_
*381 _0220_
*382 _0221_
*383 _0222_
*384 _0223_
*385 _0224_
*386 _0225_
*387 _0226_
*388 _0227_
*389 _0228_
*390 _0229_
*391 _0230_
*392 _0231_
*393 _0232_
*394 _0233_
*395 _0234_
*396 _0235_
*397 _0236_
*398 _0237_
*399 _0238_
*400 _0239_
*401 _0240_
*402 _0241_
*403 _0242_
*404 _0243_
*405 _0244_
*406 _0245_
*407 _0246_
*408 _0247_
*409 _0248_
*410 _0249_
*411 _0250_
*412 _0251_
*413 _0252_
*414 _0253_
*415 _0254_
*416 _0255_
*417 _0256_
*418 _0257_
*419 _0258_
*420 _0259_
*421 _0260_
*422 _0261_
*423 _0262_
*424 _0263_
*425 _0264_
*426 _0265_
*427 _0266_
*428 _0267_
*429 _0268_
*430 _0269_
*431 _0270_
*432 _0271_
*433 _0272_
*434 _0273_
*435 _0274_
*436 _0275_
*437 _0276_
*438 _0277_
*439 _0278_
*440 _0279_
*441 _0280_
*442 _0281_
*443 _0282_
*444 _0283_
*445 _0284_
*446 _0285_
*447 _0286_
*448 _0287_
*449 _0288_
*450 _0289_
*451 _0290_
*452 _0291_
*453 _0292_
*454 _0293_
*455 _0294_
*456 _0295_
*457 _0296_
*458 _0297_
*459 _0298_
*460 _0299_
*461 _0300_
*462 _0301_
*463 _0302_
*464 _0303_
*465 _0304_
*466 _0305_
*467 _0306_
*468 _0307_
*469 _0308_
*470 _0309_
*471 _0310_
*472 _0311_
*473 _0312_
*474 _0313_
*475 _0314_
*476 _0315_
*477 _0316_
*478 _0317_
*479 _0318_
*480 _0319_
*481 _0320_
*482 _0321_
*483 _0322_
*484 _0323_
*485 _0324_
*486 _0325_
*487 _0326_
*488 _0327_
*489 _0328_
*490 _0329_
*491 _0330_
*492 _0331_
*493 _0332_
*494 _0333_
*495 _0334_
*496 _0335_
*497 _0336_
*498 _0337_
*499 _0338_
*500 _0339_
*501 _0340_
*502 _0341_
*503 _0342_
*504 _0343_
*505 _0344_
*506 _0345_
*507 _0346_
*508 _0347_
*509 _0348_
*510 _0349_
*511 _0350_
*512 _0351_
*513 _0352_
*514 _0353_
*515 _0354_
*516 _0355_
*517 _0356_
*518 _0357_
*519 _0358_
*520 _0359_
*521 _0360_
*522 _0361_
*523 _0362_
*524 _0363_
*525 _0364_
*526 _0365_
*527 _0366_
*528 _0367_
*529 _0368_
*530 _0369_
*531 _0370_
*532 _0371_
*533 _0372_
*534 _0373_
*535 _0374_
*536 _0375_
*537 _0376_
*538 _0377_
*539 _0378_
*540 _0379_
*541 _0380_
*542 _0381_
*543 _0382_
*544 _0383_
*545 _0384_
*546 _0385_
*547 _0386_
*548 _0387_
*549 _0388_
*550 _0389_
*551 _0390_
*552 _0391_
*553 _0392_
*554 _0393_
*555 _0394_
*556 _0395_
*557 _0396_
*558 _0397_
*559 _0398_
*560 _0399_
*561 _0400_
*562 _0401_
*563 _0402_
*564 _0403_
*565 _0404_
*566 _0405_
*567 _0406_
*568 _0407_
*569 _0408_
*570 _0409_
*571 _0410_
*572 _0411_
*573 _0412_
*574 _0413_
*575 _0414_
*576 _0415_
*577 _0416_
*578 _0417_
*579 _0418_
*580 _0419_
*581 _0420_
*582 _0421_
*583 _0422_
*584 _0423_
*585 _0424_
*586 _0425_
*587 _0426_
*588 _0427_
*589 _0428_
*590 _0429_
*591 _0430_
*592 _0431_
*593 _0432_
*594 _0433_
*595 _0434_
*596 _0435_
*597 _0436_
*598 _0437_
*599 _0438_
*600 _0439_
*601 _0440_
*602 _0441_
*603 _0442_
*604 _0443_
*605 _0444_
*606 _0445_
*607 _0446_
*608 _0447_
*609 _0448_
*610 _0449_
*611 _0450_
*612 _0451_
*613 _0452_
*614 _0453_
*615 _0454_
*616 _0455_
*617 _0456_
*618 _0457_
*619 _0458_
*620 _0459_
*621 _0460_
*622 _0461_
*623 _0462_
*624 _0463_
*625 _0464_
*626 _0465_
*627 _0466_
*628 _0467_
*629 _0468_
*630 _0469_
*631 _0470_
*632 _0471_
*633 _0472_
*634 _0473_
*635 _0474_
*636 _0475_
*637 _0476_
*638 _0477_
*639 _0478_
*640 _0479_
*641 _0480_
*642 _0481_
*643 _0482_
*644 _0483_
*645 _0484_
*646 _0485_
*647 _0486_
*648 _0487_
*649 _0488_
*650 _0489_
*651 _0490_
*652 _0491_
*653 _0492_
*654 _0493_
*655 _0494_
*656 _0495_
*657 _0496_
*658 _0497_
*659 _0498_
*660 _0499_
*661 _0500_
*662 _0501_
*663 _0502_
*664 _0503_
*665 _0504_
*666 _0505_
*667 _0506_
*668 _0507_
*669 _0508_
*670 _0509_
*671 _0510_
*672 _0511_
*673 _0512_
*674 _0513_
*675 _0514_
*676 _0515_
*677 _0516_
*678 _0517_
*679 _0518_
*680 _0519_
*681 _0520_
*682 _0521_
*683 _0522_
*684 _0523_
*685 _0524_
*686 _0525_
*687 _0526_
*688 _0527_
*689 _0528_
*690 _0529_
*691 _0530_
*692 _0531_
*693 _0532_
*694 _0533_
*695 _0534_
*696 _0535_
*697 _0536_
*698 _0537_
*699 _0538_
*700 _0539_
*701 _0540_
*702 _0541_
*703 _0542_
*704 _0543_
*705 _0544_
*706 _0545_
*707 _0546_
*708 _0547_
*709 _0548_
*710 _0549_
*711 _0550_
*712 _0551_
*713 _0552_
*714 _0553_
*715 _0554_
*716 _0555_
*717 _0556_
*718 _0557_
*719 _0558_
*720 _0559_
*721 _0560_
*722 _0561_
*723 _0562_
*724 _0563_
*725 _0564_
*726 _0565_
*727 _0566_
*728 _0567_
*729 _0568_
*730 _0569_
*731 _0570_
*732 _0571_
*733 _0572_
*734 _0573_
*735 _0574_
*736 _0575_
*737 _0576_
*738 _0577_
*739 _0578_
*740 _0579_
*741 _0580_
*742 _0581_
*743 _0582_
*744 _0583_
*745 _0584_
*746 _0585_
*747 _0586_
*748 _0587_
*749 _0588_
*750 _0589_
*751 _0590_
*752 _0591_
*753 _0592_
*754 _0593_
*755 _0594_
*756 _0595_
*757 _0596_
*758 _0597_
*759 _0598_
*760 _0599_
*761 _0600_
*762 _0601_
*763 _0602_
*764 _0603_
*765 _0604_
*766 _0605_
*767 _0606_
*768 _0607_
*769 _0608_
*770 _0609_
*771 _0610_
*772 _0611_
*773 _0612_
*774 _0613_
*775 _0614_
*776 _0615_
*777 _0616_
*778 _0617_
*779 _0618_
*780 _0619_
*781 _0620_
*782 _0621_
*783 _0622_
*784 _0623_
*785 _0624_
*786 _0625_
*787 _0626_
*788 _0627_
*789 _0628_
*790 _0629_
*791 _0630_
*792 _0631_
*793 _0632_
*794 _0633_
*795 _0634_
*796 _0635_
*797 _0636_
*798 _0637_
*799 _0638_
*800 _0639_
*801 _0640_
*802 _0641_
*803 _0642_
*804 _0643_
*805 _0644_
*806 _0645_
*807 _0646_
*808 _0647_
*809 _0648_
*810 _0649_
*811 _0650_
*812 _0651_
*813 _0652_
*814 _0653_
*815 _0654_
*816 _0655_
*817 _0656_
*818 _0657_
*819 _0658_
*820 _0659_
*821 _0660_
*822 _0661_
*823 _0662_
*824 _0663_
*825 _0664_
*826 _0665_
*827 _0666_
*828 _0667_
*829 _0668_
*830 _0669_
*831 _0670_
*832 _0671_
*833 _0672_
*834 _0673_
*835 _0674_
*836 _0675_
*837 _0676_
*838 _0677_
*839 _0678_
*840 _0679_
*841 _0680_
*842 _0681_
*843 _0682_
*844 _0683_
*845 _0684_
*846 _0685_
*847 _0686_
*848 _0687_
*849 _0688_
*850 _0689_
*851 _0690_
*852 _0691_
*853 _0692_
*854 _0693_
*855 _0694_
*856 _0695_
*857 _0696_
*858 _0697_
*859 _0698_
*860 _0699_
*861 _0700_
*862 _0701_
*863 _0702_
*864 _0703_
*865 _0704_
*866 _0705_
*867 _0706_
*868 _0707_
*869 _0708_
*870 _0709_
*871 _0710_
*872 _0711_
*873 _0712_
*874 _0713_
*875 _0714_
*876 _0715_
*877 _0716_
*878 _0717_
*879 _0718_
*880 _0719_
*881 _0720_
*882 _0721_
*883 _0722_
*884 _0723_
*885 _0724_
*886 _0725_
*887 _0726_
*888 _0727_
*889 _0728_
*890 _0729_
*891 _0730_
*892 _0731_
*893 _0732_
*894 _0733_
*895 _0734_
*896 _0735_
*897 _0736_
*898 _0737_
*899 _0738_
*900 _0739_
*901 _0740_
*902 _0741_
*903 _0742_
*904 _0743_
*905 _0744_
*906 _0745_
*907 _0746_
*908 _0747_
*909 _0748_
*910 _0749_
*911 _0750_
*912 _0751_
*913 _0752_
*914 _0753_
*915 _0754_
*916 _0755_
*917 _0756_
*918 _0757_
*919 _0758_
*920 _0759_
*921 _0760_
*922 _0761_
*923 _0762_
*924 _0763_
*925 _0764_
*926 _0765_
*927 _0766_
*928 _0767_
*929 _0768_
*930 _0769_
*931 _0770_
*932 _0771_
*933 _0772_
*934 _0773_
*935 _0774_
*936 _0775_
*937 _0776_
*938 _0777_
*939 _0778_
*940 _0779_
*941 _0780_
*942 _0781_
*943 _0782_
*944 _0783_
*945 _0784_
*946 _0785_
*947 _0786_
*948 _0787_
*949 _0788_
*950 _0789_
*951 _0790_
*952 _0791_
*953 _0792_
*954 _0793_
*955 _0794_
*956 _0795_
*957 _0796_
*958 _0797_
*959 _0798_
*960 _0799_
*961 _0800_
*962 _0801_
*963 _0802_
*964 _0803_
*965 _0804_
*966 _0805_
*967 _0806_
*968 _0807_
*969 _0808_
*970 _0809_
*971 _0810_
*972 _0811_
*973 _0812_
*974 _0813_
*975 _0814_
*976 _0815_
*977 _0816_
*978 _0817_
*979 _0818_
*980 _0819_
*981 _0820_
*982 _0821_
*983 _0822_
*984 _0823_
*985 _0824_
*986 _0825_
*987 _0826_
*988 _0827_
*989 _0828_
*990 _0829_
*991 _0830_
*992 _0831_
*993 _0832_
*994 _0833_
*995 _0834_
*996 _0835_
*997 _0836_
*998 _0837_
*999 _0838_
*1000 _0839_
*1001 _0840_
*1002 _0841_
*1003 _0842_
*1004 _0843_
*1005 _0844_
*1006 _0845_
*1007 _0846_
*1008 _0847_
*1009 _0848_
*1010 _0849_
*1011 _0850_
*1012 _0851_
*1013 _0852_
*1014 _0853_
*1015 _0854_
*1016 _0855_
*1017 _0856_
*1018 _0857_
*1019 _0858_
*1020 _0859_
*1021 _0860_
*1022 _0861_
*1023 _0862_
*1024 _0863_
*1025 _0864_
*1026 _0865_
*1027 _0866_
*1028 _0867_
*1029 _0868_
*1030 _0869_
*1031 _0870_
*1032 _0871_
*1033 _0872_
*1034 _0873_
*1035 _0874_
*1036 _0875_
*1037 _0876_
*1038 _0877_
*1039 _0878_
*1040 _0879_
*1041 _0880_
*1042 _0881_
*1043 _0882_
*1044 _0883_
*1045 _0884_
*1046 _0885_
*1047 _0886_
*1048 _0887_
*1049 _0888_
*1050 _0889_
*1051 _0890_
*1052 _0891_
*1053 _0892_
*1054 _0893_
*1055 _0894_
*1056 _0895_
*1057 _0896_
*1058 _0897_
*1059 _0898_
*1060 _0899_
*1061 _0900_
*1062 _0901_
*1063 _0902_
*1064 _0903_
*1065 _0904_
*1066 _0905_
*1067 _0906_
*1068 _0907_
*1069 _0908_
*1070 _0909_
*1071 _0910_
*1072 _0911_
*1073 _0912_
*1074 _0913_
*1075 _0914_
*1076 _0915_
*1077 _0916_
*1078 _0917_
*1079 _0918_
*1080 _0919_
*1081 _0920_
*1082 _0921_
*1083 _0922_
*1084 _0923_
*1085 _0924_
*1086 _0925_
*1087 _0926_
*1088 _0927_
*1089 _0928_
*1090 _0929_
*1091 _0930_
*1092 _0931_
*1093 _0932_
*1094 _0933_
*1095 _0934_
*1096 _0935_
*1097 _0936_
*1098 _0937_
*1099 _0938_
*1100 _0939_
*1101 _0940_
*1102 _0941_
*1103 _0942_
*1104 _0943_
*1105 _0944_
*1106 _0945_
*1107 _0946_
*1108 _0947_
*1109 _0948_
*1110 _0949_
*1111 _0950_
*1112 _0951_
*1113 _0952_
*1114 _0953_
*1115 _0954_
*1116 _0955_
*1117 _0956_
*1118 _0957_
*1119 _0958_
*1120 _0959_
*1121 _0960_
*1122 _0961_
*1123 _0962_
*1124 _0963_
*1125 _0964_
*1126 _0965_
*1127 _0966_
*1128 _0967_
*1129 _0968_
*1130 _0969_
*1131 _0970_
*1132 _0971_
*1133 _0972_
*1134 _0973_
*1135 _0974_
*1136 _0975_
*1137 _0976_
*1138 _0977_
*1139 _0978_
*1140 _0979_
*1141 _0980_
*1142 _0981_
*1143 _0982_
*1144 _0983_
*1145 _0984_
*1146 _0985_
*1147 _0986_
*1148 _0987_
*1149 _0988_
*1150 _0989_
*1151 _0990_
*1152 _0991_
*1153 _0992_
*1154 _0993_
*1155 _0994_
*1156 _0995_
*1157 _0996_
*1158 _0997_
*1159 _0998_
*1160 _0999_
*1161 _1000_
*1162 _1001_
*1163 _1002_
*1164 _1003_
*1165 _1004_
*1166 _1005_
*1167 _1006_
*1168 _1007_
*1169 _1008_
*1170 _1009_
*1171 _1010_
*1172 _1011_
*1173 _1012_
*1174 _1013_
*1175 _1014_
*1176 _1015_
*1177 _1016_
*1178 _1017_
*1179 _1018_
*1180 _1019_
*1181 _1020_
*1182 _1021_
*1183 _1022_
*1184 _1023_
*1185 _1024_
*1186 _1025_
*1187 _1026_
*1188 _1027_
*1189 _1028_
*1190 _1029_
*1191 _1030_
*1192 _1031_
*1193 _1032_
*1194 _1033_
*1195 _1034_
*1196 _1035_
*1197 _1036_
*1198 _1037_
*1199 _1038_
*1200 _1039_
*1201 _1040_
*1202 _1041_
*1203 _1042_
*1204 _1043_
*1205 _1044_
*1206 _1045_
*1207 _1046_
*1208 _1047_
*1209 _1048_
*1210 _1049_
*1211 _1050_
*1212 _1051_
*1213 _1052_
*1214 _1053_
*1215 _1054_
*1216 _1055_
*1217 _1056_
*1218 _1057_
*1219 _1058_
*1220 _1059_
*1221 _1060_
*1222 _1061_
*1223 _1062_
*1224 _1063_
*1225 _1064_
*1226 _1065_
*1227 _1066_
*1228 _1067_
*1229 _1068_
*1230 _1069_
*1231 _1070_
*1232 _1071_
*1233 _1072_
*1234 _1073_
*1235 _1074_
*1236 _1075_
*1237 _1076_
*1238 _1077_
*1239 _1078_
*1240 _1079_
*1241 _1080_
*1242 _1081_
*1243 _1082_
*1244 _1083_
*1245 _1084_
*1246 _1085_
*1247 _1086_
*1248 _1087_
*1249 _1088_
*1250 _1089_
*1251 _1090_
*1252 _1091_
*1253 _1092_
*1254 _1093_
*1255 _1094_
*1256 _1095_
*1257 _1096_
*1258 _1097_
*1259 _1098_
*1260 _1099_
*1261 _1100_
*1262 _1101_
*1263 _1102_
*1264 _1103_
*1265 _1104_
*1266 _1105_
*1267 _1106_
*1268 _1107_
*1269 _1108_
*1270 _1109_
*1271 _1110_
*1272 _1111_
*1273 _1112_
*1274 _1113_
*1275 _1114_
*1276 _1115_
*1277 _1116_
*1278 _1117_
*1279 _1118_
*1280 _1119_
*1281 _1120_
*1282 _1121_
*1283 _1122_
*1284 _1123_
*1285 _1124_
*1286 _1125_
*1287 _1126_
*1288 _1127_
*1289 _1128_
*1290 _1129_
*1291 _1130_
*1292 _1131_
*1293 _1132_
*1294 _1133_
*1295 _1134_
*1296 _1135_
*1297 _1136_
*1298 _1137_
*1299 _1138_
*1300 _1139_
*1301 _1140_
*1302 _1141_
*1303 _1142_
*1304 _1143_
*1305 _1144_
*1306 _1145_
*1307 _1146_
*1308 _1147_
*1309 _1148_
*1310 _1149_
*1311 _1150_
*1312 _1151_
*1313 _1152_
*1314 _1153_
*1315 _1154_
*1316 _1155_
*1317 _1156_
*1318 _1157_
*1319 _1158_
*1320 _1159_
*1321 _1160_
*1322 _1161_
*1323 _1162_
*1324 _1163_
*1325 _1164_
*1326 _1165_
*1327 _1166_
*1328 _1167_
*1329 _1168_
*1330 _1169_
*1331 _1170_
*1332 _1171_
*1333 _1172_
*1334 _1173_
*1335 _1174_
*1336 _1175_
*1337 _1176_
*1338 _1177_
*1339 _1178_
*1340 _1179_
*1341 _1180_
*1342 _1181_
*1343 _1182_
*1344 _1183_
*1345 _1184_
*1346 _1185_
*1347 _1186_
*1348 _1187_
*1349 _1188_
*1350 _1189_
*1351 _1190_
*1352 _1191_
*1353 _1192_
*1354 _1193_
*1355 _1194_
*1356 _1195_
*1357 _1196_
*1358 _1197_
*1359 _1198_
*1360 _1199_
*1361 _1200_
*1362 _1201_
*1363 _1202_
*1364 _1203_
*1365 _1204_
*1366 _1205_
*1367 _1206_
*1368 _1207_
*1369 _1208_
*1370 _1209_
*1371 _1210_
*1372 _1211_
*1373 _1212_
*1374 _1213_
*1375 _1214_
*1376 _1215_
*1377 _1216_
*1378 _1217_
*1379 _1218_
*1380 _1219_
*1381 _1220_
*1382 _1221_
*1383 _1222_
*1384 _1223_
*1385 _1224_
*1386 _1225_
*1387 _1226_
*1388 _1227_
*1389 _1228_
*1390 _1229_
*1391 _1230_
*1392 _1231_
*1393 _1232_
*1394 _1233_
*1395 _1234_
*1396 _1235_
*1397 _1236_
*1398 _1237_
*1399 _1238_
*1400 _1239_
*1401 _1240_
*1402 _1241_
*1403 _1242_
*1404 _1243_
*1405 _1244_
*1406 _1245_
*1407 _1246_
*1408 _1247_
*1409 _1248_
*1410 _1249_
*1411 _1250_
*1412 _1251_
*1413 _1252_
*1414 _1253_
*1415 _1254_
*1416 _1255_
*1417 _1256_
*1418 _1257_
*1419 _1258_
*1420 _1259_
*1421 _1260_
*1422 _1261_
*1423 _1262_
*1424 _1263_
*1425 _1264_
*1426 _1265_
*1427 _1266_
*1428 _1267_
*1429 _1268_
*1430 _1269_
*1431 _1270_
*1432 _1271_
*1433 _1272_
*1434 _1273_
*1435 _1274_
*1436 _1275_
*1437 _1276_
*1438 _1277_
*1439 _1278_
*1440 _1279_
*1441 _1280_
*1442 _1281_
*1443 _1282_
*1444 _1283_
*1445 _1284_
*1446 _1285_
*1447 _1286_
*1448 _1287_
*1449 _1288_
*1450 _1289_
*1451 _1290_
*1452 _1291_
*1453 _1292_
*1454 _1293_
*1455 _1294_
*1456 _1295_
*1457 _1296_
*1458 _1297_
*1459 _1298_
*1460 _1299_
*1461 _1300_
*1462 _1301_
*1463 _1302_
*1464 _1303_
*1465 _1304_
*1466 _1305_
*1467 _1306_
*1468 _1307_
*1469 _1308_
*1470 _1309_
*1471 _1310_
*1472 _1311_
*1473 _1312_
*1474 _1313_
*1475 _1314_
*1476 _1315_
*1477 _1316_
*1478 _1317_
*1479 _1318_
*1480 _1319_
*1481 _1320_
*1482 _1321_
*1483 _1322_
*1484 _1323_
*1485 _1324_
*1486 _1325_
*1487 _1326_
*1488 _1327_
*1489 _1328_
*1490 _1329_
*1491 _1330_
*1492 _1331_
*1493 _1332_
*1494 _1333_
*1495 _1334_
*1496 _1335_
*1497 _1336_
*1498 _1337_
*1499 _1338_
*1500 _1339_
*1501 _1340_
*1502 _1341_
*1503 _1342_
*1504 _1343_
*1505 _1344_
*1506 _1345_
*1507 _1346_
*1508 _1347_
*1509 _1348_
*1510 _1349_
*1511 _1350_
*1512 _1351_
*1513 _1352_
*1514 _1353_
*1515 _1354_
*1516 _1355_
*1517 _1356_
*1518 _1357_
*1519 _1358_
*1520 _1359_
*1521 _1360_
*1522 _1361_
*1523 _1362_
*1524 _1363_
*1525 _1364_
*1526 _1365_
*1527 _1366_
*1528 _1367_
*1529 _1368_
*1530 _1369_
*1531 _1370_
*1532 _1371_
*1533 _1372_
*1534 _1373_
*1535 _1374_
*1536 _1375_
*1537 _1376_
*1538 _1377_
*1539 _1378_
*1540 _1379_
*1541 _1380_
*1542 _1381_
*1543 _1382_
*1544 _1383_
*1545 _1384_
*1546 _1385_
*1547 _1386_
*1548 _1387_
*1549 _1388_
*1550 _1389_
*1551 _1390_
*1552 _1391_
*1553 _1392_
*1554 _1393_
*1555 _1394_
*1556 _1395_
*1557 _1396_
*1558 _1397_
*1559 _1398_
*1560 _1399_
*1561 _1400_
*1562 _1401_
*1563 _1402_
*1564 _1403_
*1565 _1404_
*1566 _1405_
*1567 _1406_
*1568 _1407_
*1569 _1408_
*1570 _1409_
*1571 _1410_
*1572 _1411_
*1573 _1412_
*1574 _1413_
*1575 _1414_
*1576 _1415_
*1577 _1416_
*1578 _1417_
*1579 _1418_
*1580 _1419_
*1581 _1420_
*1582 _1421_
*1583 _1422_
*1584 _1423_
*1585 _1424_
*1586 _1425_
*1587 _1426_
*1588 _1427_
*1589 _1428_
*1590 _1429_
*1591 _1430_
*1592 _1431_
*1593 _1432_
*1594 _1433_
*1595 _1434_
*1596 _1435_
*1597 _1436_
*1598 _1437_
*1599 _1438_
*1600 _1439_
*1601 _1440_
*1602 _1441_
*1603 _1442_
*1604 _1443_
*1605 _1444_
*1606 _1445_
*1607 _1446_
*1608 _1447_
*1609 _1448_
*1610 _1449_
*1611 _1450_
*1612 _1451_
*1613 _1452_
*1614 _1453_
*1615 _1454_
*1616 _1455_
*1617 _1456_
*1618 _1457_
*1619 _1458_
*1620 _1459_
*1621 _1460_
*1622 _1461_
*1623 _1462_
*1624 _1463_
*1625 _1464_
*1626 _1465_
*1627 _1466_
*1628 _1467_
*1629 _1468_
*1630 _1469_
*1631 _1470_
*1632 _1471_
*1633 _1472_
*1634 _1473_
*1635 _1474_
*1636 _1475_
*1637 _1476_
*1638 _1477_
*1639 _1478_
*1640 _1479_
*1641 _1480_
*1642 _1481_
*1643 clknet_0_clk
*1644 clknet_3_0__leaf_clk
*1645 clknet_3_1__leaf_clk
*1646 clknet_3_2__leaf_clk
*1647 clknet_3_3__leaf_clk
*1648 clknet_3_4__leaf_clk
*1649 clknet_3_5__leaf_clk
*1650 clknet_3_6__leaf_clk
*1651 clknet_3_7__leaf_clk
*1652 clknet_leaf_0_clk
*1653 clknet_leaf_10_clk
*1654 clknet_leaf_11_clk
*1655 clknet_leaf_12_clk
*1656 clknet_leaf_13_clk
*1657 clknet_leaf_14_clk
*1658 clknet_leaf_15_clk
*1659 clknet_leaf_16_clk
*1660 clknet_leaf_17_clk
*1661 clknet_leaf_18_clk
*1662 clknet_leaf_19_clk
*1663 clknet_leaf_1_clk
*1664 clknet_leaf_20_clk
*1665 clknet_leaf_21_clk
*1666 clknet_leaf_22_clk
*1667 clknet_leaf_23_clk
*1668 clknet_leaf_24_clk
*1669 clknet_leaf_25_clk
*1670 clknet_leaf_26_clk
*1671 clknet_leaf_27_clk
*1672 clknet_leaf_28_clk
*1673 clknet_leaf_29_clk
*1674 clknet_leaf_2_clk
*1675 clknet_leaf_30_clk
*1676 clknet_leaf_31_clk
*1677 clknet_leaf_32_clk
*1678 clknet_leaf_33_clk
*1679 clknet_leaf_34_clk
*1680 clknet_leaf_35_clk
*1681 clknet_leaf_36_clk
*1682 clknet_leaf_37_clk
*1683 clknet_leaf_38_clk
*1684 clknet_leaf_39_clk
*1685 clknet_leaf_3_clk
*1686 clknet_leaf_40_clk
*1687 clknet_leaf_41_clk
*1688 clknet_leaf_42_clk
*1689 clknet_leaf_43_clk
*1690 clknet_leaf_44_clk
*1691 clknet_leaf_45_clk
*1692 clknet_leaf_46_clk
*1693 clknet_leaf_47_clk
*1694 clknet_leaf_48_clk
*1695 clknet_leaf_49_clk
*1696 clknet_leaf_4_clk
*1697 clknet_leaf_50_clk
*1698 clknet_leaf_51_clk
*1699 clknet_leaf_52_clk
*1700 clknet_leaf_53_clk
*1701 clknet_leaf_54_clk
*1702 clknet_leaf_55_clk
*1703 clknet_leaf_56_clk
*1704 clknet_leaf_57_clk
*1705 clknet_leaf_58_clk
*1706 clknet_leaf_59_clk
*1707 clknet_leaf_5_clk
*1708 clknet_leaf_60_clk
*1709 clknet_leaf_61_clk
*1710 clknet_leaf_62_clk
*1711 clknet_leaf_63_clk
*1712 clknet_leaf_64_clk
*1713 clknet_leaf_65_clk
*1714 clknet_leaf_66_clk
*1715 clknet_leaf_67_clk
*1716 clknet_leaf_68_clk
*1717 clknet_leaf_69_clk
*1718 clknet_leaf_6_clk
*1719 clknet_leaf_70_clk
*1720 clknet_leaf_71_clk
*1721 clknet_leaf_72_clk
*1722 clknet_leaf_73_clk
*1723 clknet_leaf_74_clk
*1724 clknet_leaf_75_clk
*1725 clknet_leaf_76_clk
*1726 clknet_leaf_77_clk
*1727 clknet_leaf_78_clk
*1728 clknet_leaf_79_clk
*1729 clknet_leaf_7_clk
*1730 clknet_leaf_80_clk
*1731 clknet_leaf_81_clk
*1732 clknet_leaf_82_clk
*1733 clknet_leaf_83_clk
*1734 clknet_leaf_84_clk
*1735 clknet_leaf_85_clk
*1736 clknet_leaf_86_clk
*1737 clknet_leaf_8_clk
*1738 clknet_leaf_9_clk
*1739 col_cnt\[0\]
*1740 col_cnt\[1\]
*1741 col_cnt\[2\]
*1742 col_cnt\[3\]
*1743 col_cnt\[4\]
*1744 col_cnt\[5\]
*1745 col_cnt\[6\]
*1746 col_cnt\[7\]
*1747 col_cnt\[8\]
*1748 graph_type
*1749 hor_incr_type
*1750 mask\[0\]
*1751 mask\[100\]
*1752 mask\[101\]
*1753 mask\[102\]
*1754 mask\[103\]
*1755 mask\[104\]
*1756 mask\[105\]
*1757 mask\[106\]
*1758 mask\[107\]
*1759 mask\[108\]
*1760 mask\[109\]
*1761 mask\[10\]
*1762 mask\[110\]
*1763 mask\[111\]
*1764 mask\[112\]
*1765 mask\[113\]
*1766 mask\[114\]
*1767 mask\[115\]
*1768 mask\[116\]
*1769 mask\[117\]
*1770 mask\[118\]
*1771 mask\[119\]
*1772 mask\[11\]
*1773 mask\[120\]
*1774 mask\[121\]
*1775 mask\[122\]
*1776 mask\[123\]
*1777 mask\[124\]
*1778 mask\[125\]
*1779 mask\[126\]
*1780 mask\[127\]
*1781 mask\[128\]
*1782 mask\[129\]
*1783 mask\[12\]
*1784 mask\[130\]
*1785 mask\[131\]
*1786 mask\[132\]
*1787 mask\[133\]
*1788 mask\[134\]
*1789 mask\[135\]
*1790 mask\[136\]
*1791 mask\[137\]
*1792 mask\[138\]
*1793 mask\[139\]
*1794 mask\[13\]
*1795 mask\[140\]
*1796 mask\[141\]
*1797 mask\[142\]
*1798 mask\[143\]
*1799 mask\[144\]
*1800 mask\[145\]
*1801 mask\[146\]
*1802 mask\[147\]
*1803 mask\[148\]
*1804 mask\[149\]
*1805 mask\[14\]
*1806 mask\[150\]
*1807 mask\[151\]
*1808 mask\[152\]
*1809 mask\[153\]
*1810 mask\[154\]
*1811 mask\[155\]
*1812 mask\[156\]
*1813 mask\[157\]
*1814 mask\[158\]
*1815 mask\[159\]
*1816 mask\[15\]
*1817 mask\[160\]
*1818 mask\[161\]
*1819 mask\[162\]
*1820 mask\[163\]
*1821 mask\[164\]
*1822 mask\[165\]
*1823 mask\[166\]
*1824 mask\[167\]
*1825 mask\[168\]
*1826 mask\[169\]
*1827 mask\[16\]
*1828 mask\[170\]
*1829 mask\[171\]
*1830 mask\[172\]
*1831 mask\[173\]
*1832 mask\[174\]
*1833 mask\[175\]
*1834 mask\[176\]
*1835 mask\[177\]
*1836 mask\[178\]
*1837 mask\[179\]
*1838 mask\[17\]
*1839 mask\[180\]
*1840 mask\[181\]
*1841 mask\[182\]
*1842 mask\[183\]
*1843 mask\[184\]
*1844 mask\[185\]
*1845 mask\[186\]
*1846 mask\[187\]
*1847 mask\[188\]
*1848 mask\[189\]
*1849 mask\[18\]
*1850 mask\[190\]
*1851 mask\[191\]
*1852 mask\[192\]
*1853 mask\[193\]
*1854 mask\[194\]
*1855 mask\[195\]
*1856 mask\[196\]
*1857 mask\[197\]
*1858 mask\[198\]
*1859 mask\[199\]
*1860 mask\[19\]
*1861 mask\[1\]
*1862 mask\[200\]
*1863 mask\[201\]
*1864 mask\[202\]
*1865 mask\[203\]
*1866 mask\[204\]
*1867 mask\[205\]
*1868 mask\[206\]
*1869 mask\[207\]
*1870 mask\[208\]
*1871 mask\[209\]
*1872 mask\[20\]
*1873 mask\[210\]
*1874 mask\[211\]
*1875 mask\[212\]
*1876 mask\[213\]
*1877 mask\[214\]
*1878 mask\[215\]
*1879 mask\[216\]
*1880 mask\[217\]
*1881 mask\[218\]
*1882 mask\[219\]
*1883 mask\[21\]
*1884 mask\[220\]
*1885 mask\[221\]
*1886 mask\[222\]
*1887 mask\[223\]
*1888 mask\[224\]
*1889 mask\[225\]
*1890 mask\[226\]
*1891 mask\[227\]
*1892 mask\[228\]
*1893 mask\[229\]
*1894 mask\[22\]
*1895 mask\[230\]
*1896 mask\[231\]
*1897 mask\[232\]
*1898 mask\[233\]
*1899 mask\[234\]
*1900 mask\[235\]
*1901 mask\[236\]
*1902 mask\[237\]
*1903 mask\[238\]
*1904 mask\[239\]
*1905 mask\[23\]
*1906 mask\[240\]
*1907 mask\[241\]
*1908 mask\[242\]
*1909 mask\[243\]
*1910 mask\[244\]
*1911 mask\[245\]
*1912 mask\[246\]
*1913 mask\[247\]
*1914 mask\[248\]
*1915 mask\[249\]
*1916 mask\[24\]
*1917 mask\[250\]
*1918 mask\[251\]
*1919 mask\[252\]
*1920 mask\[253\]
*1921 mask\[254\]
*1922 mask\[255\]
*1923 mask\[256\]
*1924 mask\[257\]
*1925 mask\[258\]
*1926 mask\[259\]
*1927 mask\[25\]
*1928 mask\[260\]
*1929 mask\[261\]
*1930 mask\[262\]
*1931 mask\[263\]
*1932 mask\[264\]
*1933 mask\[265\]
*1934 mask\[266\]
*1935 mask\[267\]
*1936 mask\[268\]
*1937 mask\[269\]
*1938 mask\[26\]
*1939 mask\[270\]
*1940 mask\[271\]
*1941 mask\[272\]
*1942 mask\[273\]
*1943 mask\[274\]
*1944 mask\[275\]
*1945 mask\[276\]
*1946 mask\[277\]
*1947 mask\[278\]
*1948 mask\[279\]
*1949 mask\[27\]
*1950 mask\[280\]
*1951 mask\[281\]
*1952 mask\[282\]
*1953 mask\[283\]
*1954 mask\[284\]
*1955 mask\[285\]
*1956 mask\[286\]
*1957 mask\[287\]
*1958 mask\[288\]
*1959 mask\[289\]
*1960 mask\[28\]
*1961 mask\[290\]
*1962 mask\[291\]
*1963 mask\[292\]
*1964 mask\[293\]
*1965 mask\[294\]
*1966 mask\[295\]
*1967 mask\[296\]
*1968 mask\[297\]
*1969 mask\[298\]
*1970 mask\[299\]
*1971 mask\[29\]
*1972 mask\[2\]
*1973 mask\[300\]
*1974 mask\[301\]
*1975 mask\[302\]
*1976 mask\[303\]
*1977 mask\[304\]
*1978 mask\[305\]
*1979 mask\[306\]
*1980 mask\[307\]
*1981 mask\[308\]
*1982 mask\[309\]
*1983 mask\[30\]
*1984 mask\[310\]
*1985 mask\[311\]
*1986 mask\[312\]
*1987 mask\[313\]
*1988 mask\[314\]
*1989 mask\[315\]
*1990 mask\[316\]
*1991 mask\[317\]
*1992 mask\[318\]
*1993 mask\[319\]
*1994 mask\[31\]
*1995 mask\[320\]
*1996 mask\[321\]
*1997 mask\[322\]
*1998 mask\[323\]
*1999 mask\[324\]
*2000 mask\[325\]
*2001 mask\[326\]
*2002 mask\[327\]
*2003 mask\[328\]
*2004 mask\[329\]
*2005 mask\[32\]
*2006 mask\[330\]
*2007 mask\[331\]
*2008 mask\[332\]
*2009 mask\[333\]
*2010 mask\[334\]
*2011 mask\[335\]
*2012 mask\[336\]
*2013 mask\[337\]
*2014 mask\[338\]
*2015 mask\[339\]
*2016 mask\[33\]
*2017 mask\[340\]
*2018 mask\[341\]
*2019 mask\[342\]
*2020 mask\[343\]
*2021 mask\[344\]
*2022 mask\[345\]
*2023 mask\[346\]
*2024 mask\[347\]
*2025 mask\[348\]
*2026 mask\[349\]
*2027 mask\[34\]
*2028 mask\[350\]
*2029 mask\[351\]
*2030 mask\[352\]
*2031 mask\[353\]
*2032 mask\[354\]
*2033 mask\[355\]
*2034 mask\[356\]
*2035 mask\[357\]
*2036 mask\[358\]
*2037 mask\[359\]
*2038 mask\[35\]
*2039 mask\[360\]
*2040 mask\[361\]
*2041 mask\[362\]
*2042 mask\[363\]
*2043 mask\[364\]
*2044 mask\[365\]
*2045 mask\[366\]
*2046 mask\[367\]
*2047 mask\[368\]
*2048 mask\[369\]
*2049 mask\[36\]
*2050 mask\[370\]
*2051 mask\[371\]
*2052 mask\[372\]
*2053 mask\[373\]
*2054 mask\[374\]
*2055 mask\[375\]
*2056 mask\[376\]
*2057 mask\[377\]
*2058 mask\[378\]
*2059 mask\[379\]
*2060 mask\[37\]
*2061 mask\[380\]
*2062 mask\[381\]