*SPEF "ieee 1481-1999"
*DESIGN "vga_controller"
*DATE "00:41:46 Thursday March 26, 2026"
*VENDOR "The OpenROAD Project"
*PROGRAM "OpenROAD"
*VERSION "edf00dff99f6c40d67a30c0e22a8191c5d2ed9d6"
*DESIGN_FLOW "NAME_SCOPE LOCAL" "PIN_CAP NONE"
*DIVIDER /
*DELIMITER :
*BUS_DELIMITER []
*T_UNIT 1 NS
*C_UNIT 1 PF
*R_UNIT 1 OHM
*L_UNIT 1 HENRY

*NAME_MAP
*1 arst_n
*2 blank
*3 blue[0]
*4 blue[1]
*5 blue[2]
*6 blue[3]
*7 blue[4]
*8 blue[5]
*9 blue[6]
*10 blue[7]
*11 clk
*12 empty
*13 enable
*14 error
*15 error_clr
*16 green[0]
*17 green[1]
*18 green[2]
*19 green[3]
*20 green[4]
*21 green[5]
*22 green[6]
*23 green[7]
*24 h_sync
*25 hsync_act[0]
*26 hsync_act[10]
*27 hsync_act[1]
*28 hsync_act[2]
*29 hsync_act[3]
*30 hsync_act[4]
*31 hsync_act[5]
*32 hsync_act[6]
*33 hsync_act[7]
*34 hsync_act[8]
*35 hsync_act[9]
*36 hsync_deact[0]
*37 hsync_deact[1]
*38 hsync_deact[2]
*39 hsync_deact[3]
*40 hsync_deact[4]
*41 hsync_deact[5]
*42 hsync_deact[6]
*43 hsync_deact[7]
*44 hsync_deact[8]
*45 hsync_deact[9]
*46 oblue[0]
*47 oblue[1]
*48 oblue[2]
*49 oblue[3]
*50 oblue[4]
*51 oblue[5]
*52 oblue[6]
*53 oblue[7]
*54 oclk
*55 ogreen[0]
*56 ogreen[1]
*57 ogreen[2]
*58 ogreen[3]
*59 ogreen[4]
*60 ogreen[5]
*61 ogreen[6]
*62 ogreen[7]
*63 ored[0]
*64 ored[1]
*65 ored[2]
*66 ored[3]
*67 ored[4]
*68 ored[5]
*69 ored[6]
*70 ored[7]
*71 rden
*72 red[0]
*73 red[1]
*74 red[2]
*75 red[3]
*76 red[4]
*77 red[5]
*78 red[6]
*79 red[7]
*80 net106
*81 v_sync
*84 vsync_act[0]
*85 vsync_act[10]
*86 vsync_act[1]
*87 vsync_act[2]
*88 vsync_act[3]
*89 vsync_act[4]
*90 vsync_act[5]
*91 vsync_act[6]
*92 vsync_act[7]
*93 vsync_act[8]
*94 vsync_act[9]
*95 vsync_deact[0]
*96 vsync_deact[1]
*97 vsync_deact[2]
*98 vsync_deact[3]
*99 vsync_deact[4]
*100 vsync_deact[5]
*101 vsync_deact[6]
*102 vsync_deact[7]
*103 vsync_deact[8]
*104 vsync_deact[9]
*105 _000_
*106 _001_
*107 _002_
*108 _003_
*109 _004_
*110 _005_
*111 _006_
*112 _007_
*113 _008_
*114 _009_
*115 _010_
*116 _011_
*117 _012_
*118 _013_
*119 _014_
*120 _015_
*121 _016_
*122 _017_
*123 _018_
*124 _019_
*125 _020_
*126 _021_
*127 _022_
*128 _023_
*129 _024_
*130 _025_
*131 _026_
*132 _027_
*133 _028_
*134 _029_
*135 _030_
*136 _031_
*137 _032_
*138 _033_
*139 _034_
*140 _035_
*141 _036_
*142 _037_
*143 _038_
*144 _039_
*145 _040_
*146 _041_
*147 _042_
*148 _043_
*149 _044_
*150 _045_
*151 _046_
*152 _047_
*153 _048_
*154 _049_
*155 _050_
*156 _051_
*157 _052_
*158 _053_
*159 _054_
*160 _055_
*161 _056_
*162 _057_
*163 _058_
*164 _059_
*165 _060_
*166 _061_
*167 _062_
*168 _063_
*169 _064_
*170 _065_
*171 _066_
*172 _067_
*173 _068_
*174 _069_
*175 _070_
*176 _071_
*177 _072_
*178 _073_
*179 _074_
*180 _075_
*181 _076_
*182 _077_
*183 _078_
*184 _079_
*185 _080_
*186 _081_
*187 _082_
*188 _083_
*189 _084_
*190 _085_
*191 _086_
*192 _087_
*193 _088_
*194 _089_
*195 _090_
*196 _091_
*197 _092_
*198 _093_
*199 _094_
*200 _095_
*201 _096_
*202 _097_
*203 _098_
*204 _099_
*205 _100_
*206 _101_
*207 _102_
*208 _103_
*209 _104_
*210 _105_
*211 _106_
*212 _107_
*213 _108_
*214 _109_
*215 _110_
*216 _111_
*217 _112_
*218 _113_
*219 _114_
*220 _115_
*221 _116_
*222 _117_
*223 _118_
*224 _119_
*225 _120_
*226 _121_
*227 _122_
*228 _123_
*229 _124_
*230 _125_
*231 _126_
*232 _127_
*233 _128_
*234 _129_
*235 _130_
*236 _131_
*237 _132_
*238 _133_
*239 _134_
*240 _135_
*241 _136_
*242 _137_
*243 _138_
*244 _139_
*245 _140_
*246 _141_
*247 _142_
*248 _143_
*249 _144_
*250 _145_
*251 _146_
*252 _147_
*253 _148_
*254 _149_
*255 _150_
*256 _151_
*257 _152_
*258 _153_
*259 _154_
*260 _155_
*261 _156_
*262 _157_
*263 _158_
*264 _159_
*265 _160_
*266 _161_
*267 _162_
*268 _163_
*269 _164_
*270 _165_
*271 _166_
*272 _167_
*273 _168_
*274 _169_
*275 _170_
*276 _171_
*277 _172_
*278 _173_
*279 _174_
*280 _175_
*281 _176_
*282 _177_
*283 _178_
*284 _179_
*285 _180_
*286 _181_
*287 _182_
*288 _183_
*289 _184_
*290 _185_
*291 _186_
*292 _187_
*293 _188_
*294 _189_
*295 _190_
*296 _191_
*297 _192_
*298 _193_
*299 _194_
*300 _195_
*301 _196_
*302 _197_
*303 _198_
*304 _199_
*305 _200_
*306 _201_
*307 _202_
*308 _203_
*309 _204_
*310 _205_
*311 _206_
*312 _207_
*313 _208_
*314 _209_
*315 _210_
*316 _211_
*317 _212_
*318 _213_
*319 _214_
*320 _215_
*321 _216_
*322 _217_
*323 _218_
*324 _219_
*325 _220_
*326 _221_
*327 _222_
*328 _223_
*329 _224_
*330 _225_
*331 _226_
*332 _227_
*333 _228_
*334 _229_
*335 _230_
*336 _231_
*337 _232_
*338 _233_
*339 _234_
*340 _235_
*341 _236_
*342 _237_
*343 _238_
*344 _239_
*345 _240_
*346 _241_
*347 _242_
*348 _243_
*349 _244_
*350 _245_
*351 _246_
*352 _247_
*353 _248_
*354 _249_
*355 _250_
*356 _251_
*357 _252_
*358 _253_
*359 _254_
*360 _255_
*361 _256_
*362 _257_
*363 _258_
*364 _259_
*365 _260_
*366 _261_
*367 _262_
*368 _263_
*369 _264_
*370 _265_
*371 _266_
*372 _267_
*373 _268_
*374 _269_
*375 _270_
*376 _271_
*377 _272_
*378 _273_
*379 _274_
*380 _275_
*381 _276_
*382 _277_
*383 _278_
*384 _279_
*385 _280_
*386 _281_
*387 _282_
*388 _283_
*389 _284_
*390 _285_
*391 _286_
*392 clknet_0_clk
*393 clknet_1_0__leaf_clk
*394 clknet_1_1__leaf_clk
*395 hcnt\[0\]
*396 hcnt\[10\]
*397 hcnt\[1\]
*398 hcnt\[2\]
*399 hcnt\[3\]
*400 hcnt\[4\]
*401 hcnt\[5\]
*402 hcnt\[6\]
*403 hcnt\[7\]
*404 hcnt\[8\]
*405 hcnt\[9\]
*406 net1
*407 net10
*408 net100
*409 net101
*410 net102
*411 net103
*412 net104
*413 net105
*414 net107
*415 net108
*416 net11
*417 net110
*418 net111
*419 net112
*420 net113
*421 net114
*422 net115
*423 net116
*424 net117
*425 net118
*426 net12
*427 net120
*428 net121
*429 net122
*430 net123
*431 net124
*432 net125
*433 net126
*434 net127
*435 net128
*436 net129
*437 net13
*438 net130
*439 net131
*440 net132
*441 net133
*442 net134
*443 net135
*444 net136
*445 net137
*446 net138
*447 net139
*448 net14
*449 net140
*450 net141
*451 net142
*452 net143
*453 net144
*454 net145
*455 net146
*456 net147
*457 net148
*458 net149
*459 net15
*460 net150
*461 net151
*462 net152
*463 net153
*464 net154
*465 net155
*466 net156
*467 net157
*468 net158
*469 net159
*470 net16
*471 net160
*472 net161
*473 net162
*474 net163
*475 net164
*476 net165
*477 net166
*478 net17
*479 net18
*480 net19
*481 net2
*482 net20
*483 net21
*484 net22
*485 net23
*486 net24
*487 net25
*488 net26
*489 net27
*490 net28
*491 net29
*492 net3
*493 net30
*494 net31
*495 net32
*496 net33
*497 net34
*498 net35
*499 net36
*500 net37
*501 net38
*502 net39
*503 net4
*504 net40
*505 net41
*506 net42
*507 net43
*508 net44
*509 net45
*510 net46
*511 net47
*512 net48
*513 net49
*514 net5
*515 net50
*516 net51
*517 net52
*518 net53
*519 net54
*520 net55
*521 net56
*522 net57
*523 net58
*524 net59
*525 net6
*526 net60
*527 net61
*528 net62
*529 net63
*530 net64
*531 net65
*532 net66
*533 net67
*534 net68
*535 net69
*536 net7
*537 net70
*538 net71
*539 net72
*540 net73
*541 net74
*542 net75
*543 net76
*544 net77
*545 net78
*546 net79
*547 net8
*548 net80
*549 net81
*550 net82
*551 net83
*552 net84
*553 net85
*554 net86
*555 net87
*556 net88
*557 net89
*558 net9
*559 net90
*560 net91
*561 net92
*562 net93
*563 net94
*564 net95
*565 net96
*566 net97
*567 net98
*568 net99
*569 vcnt\[0\]
*570 vcnt\[10\]
*571 vcnt\[1\]
*572 vcnt\[2\]
*573 vcnt\[3\]
*574 vcnt\[4\]
*575 vcnt\[5\]
*576 vcnt\[6\]
*577 vcnt\[7\]
*578 vcnt\[8\]
*579 vcnt\[9\]
*580 ANTENNA__502__Y
*581 ANTENNA__504__B
*582 ANTENNA__505__B
*583 ANTENNA__506__A
*584 ANTENNA__507__A
*585 ANTENNA__508__A
*586 ANTENNA__509__A
*587 ANTENNA__510__A
*588 ANTENNA__511__A
*589 ANTENNA__512__A
*590 ANTENNA__513__A
*591 ANTENNA__514__A
*592 ANTENNA__515__A
*593 ANTENNA__516__A
*594 ANTENNA__517__A
*595 ANTENNA__518__A
*596 ANTENNA__519__A
*597 ANTENNA__520__A
*598 ANTENNA__522__A
*599 ANTENNA__524__A
*600 ANTENNA__526__A
*601 ANTENNA__529__A
*602 ANTENNA__532__B
*603 ANTENNA__532__X
*604 ANTENNA__533__X
*605 ANTENNA__534__A
*606 ANTENNA__534__B
*607 ANTENNA__534__X
*608 ANTENNA__535__B
*609 ANTENNA__536__B1_N
*610 ANTENNA__537__A1
*611 ANTENNA__539__A1
*612 ANTENNA__539__B2
*613 ANTENNA__543__A1
*614 ANTENNA__543__B2
*615 ANTENNA__547__A1
*616 ANTENNA__547__B2
*617 ANTENNA__549__A1
*618 ANTENNA__549__B2
*619 ANTENNA__553__A1
*620 ANTENNA__553__B2
*621 ANTENNA__557__A1
*622 ANTENNA__557__B2
*623 ANTENNA__559__A1
*624 ANTENNA__559__B2
*625 ANTENNA__563__B2
*626 ANTENNA__567__B2
*627 ANTENNA__569__B2
*628 ANTENNA__570__A0
*629 ANTENNA__570__A1
*630 ANTENNA__573__A1
*631 ANTENNA__573__B1
*632 ANTENNA__575__A2
*633 ANTENNA__575__B1
*634 ANTENNA__579__A1
*635 ANTENNA__579__B1
*636 ANTENNA__582__A1
*637 ANTENNA__582__B1
*638 ANTENNA__586__A1
*639 ANTENNA__586__B1
*640 ANTENNA__588__B1
*641 ANTENNA__589__B2
*642 ANTENNA__592__A1
*643 ANTENNA__592__B1
*644 ANTENNA__596__A1
*645 ANTENNA__596__B1
*646 ANTENNA__599__A1
*647 ANTENNA__599__B1
*648 ANTENNA__601__A2
*649 ANTENNA__601__B1
*650 ANTENNA__602__CLK
*651 ANTENNA__602__RESET_B
*652 ANTENNA__603__CLK
*653 ANTENNA__603__RESET_B
*654 ANTENNA__604__CLK
*655 ANTENNA__604__RESET_B
*656 ANTENNA__605__CLK
*657 ANTENNA__605__RESET_B
*658 ANTENNA__606__CLK
*659 ANTENNA__606__RESET_B
*660 ANTENNA__607__CLK
*661 ANTENNA__607__RESET_B
*662 ANTENNA__608__CLK
*663 ANTENNA__608__RESET_B
*664 ANTENNA__609__CLK
*665 ANTENNA__609__RESET_B
*666 ANTENNA__610__CLK
*667 ANTENNA__610__RESET_B
*668 ANTENNA__611__CLK
*669 ANTENNA__611__RESET_B
*670 ANTENNA__612__CLK
*671 ANTENNA__612__RESET_B
*672 ANTENNA__613__CLK
*673 ANTENNA__613__RESET_B
*674 ANTENNA__614__CLK
*675 ANTENNA__614__RESET_B
*676 ANTENNA__615__CLK
*677 ANTENNA__615__RESET_B
*678 ANTENNA__616__CLK
*679 ANTENNA__616__RESET_B
*680 ANTENNA__617__CLK
*681 ANTENNA__617__RESET_B
*682 ANTENNA__618__CLK
*683 ANTENNA__618__RESET_B
*684 ANTENNA__619__CLK
*685 ANTENNA__619__RESET_B
*686 ANTENNA__620__CLK
*687 ANTENNA__620__RESET_B
*688 ANTENNA__621__CLK
*689 ANTENNA__621__RESET_B
*690 ANTENNA__622__CLK
*691 ANTENNA__622__RESET_B
*692 ANTENNA__623__CLK
*693 ANTENNA__623__RESET_B
*694 ANTENNA__624__CLK
*695 ANTENNA__624__RESET_B
*696 ANTENNA__625__CLK
*697 ANTENNA__625__RESET_B
*698 ANTENNA_clkbuf_0_clk_A
*699 ANTENNA_clkbuf_1_0__f_clk_X
*700 ANTENNA_clkbuf_1_1__f_clk_X
*701 ANTENNA_clkload0_A
*702 ANTENNA_fanout101_A
*703 ANTENNA_fanout101_X
*704 ANTENNA_fanout102_A
*705 ANTENNA_fanout103_X
*706 ANTENNA_fanout104_A
*707 ANTENNA_fanout104_X
*708 ANTENNA_fanout105_A
*709 ANTENNA_fanout105_X
*710 ANTENNA_hold11_A
*711 ANTENNA_hold59_A
*712 ANTENNA_input11_A
*713 ANTENNA_input13_A
*714 ANTENNA_input14_A
*715 ANTENNA_input15_A
*716 ANTENNA_input16_A
*717 ANTENNA_input17_A
*718 ANTENNA_input18_A
*719 ANTENNA_input19_A
*720 ANTENNA_input1_A
*721 ANTENNA_input1_X
*722 ANTENNA_input20_A
*723 ANTENNA_input21_A
*724 ANTENNA_input22_A
*725 ANTENNA_input23_A
*726 ANTENNA_input24_A
*727 ANTENNA_input25_A
*728 ANTENNA_input26_A
*729 ANTENNA_input27_A
*730 ANTENNA_input28_A
*731 ANTENNA_input29_A
*732 ANTENNA_input2_A
*733 ANTENNA_input30_A
*734 ANTENNA_input31_A
*735 ANTENNA_input32_A
*736 ANTENNA_input33_A
*737 ANTENNA_input34_A
*738 ANTENNA_input35_A
*739 ANTENNA_input36_A
*740 ANTENNA_input37_A
*741 ANTENNA_input38_A
*742 ANTENNA_input39_A
*743 ANTENNA_input3_A
*744 ANTENNA_input40_A
*745 ANTENNA_input41_A
*746 ANTENNA_input42_A
*747 ANTENNA_input43_A
*748 ANTENNA_input44_A
*749 ANTENNA_input45_A
*750 ANTENNA_input46_A
*751 ANTENNA_input47_A
*752 ANTENNA_input48_A
*753 ANTENNA_input49_A
*754 ANTENNA_input4_A
*755 ANTENNA_input50_A
*756 ANTENNA_input51_A
*757 ANTENNA_input52_A
*758 ANTENNA_input53_A
*759 ANTENNA_input54_A
*760 ANTENNA_input55_A
*761 ANTENNA_input56_A
*762 ANTENNA_input57_A
*763 ANTENNA_input58_A
*764 ANTENNA_input59_A
*765 ANTENNA_input5_A
*766 ANTENNA_input60_A
*767 ANTENNA_input61_A
*768 ANTENNA_input62_A
*769 ANTENNA_input63_A
*770 ANTENNA_input64_A
*771 ANTENNA_input65_A
*772 ANTENNA_input66_A
*773 ANTENNA_input67_A
*774 ANTENNA_input68_A
*775 ANTENNA_input69_A
*776 ANTENNA_input6_A
*777 ANTENNA_input70_A
*778 ANTENNA_input7_A
*779 ANTENNA_input8_A
*780 ANTENNA_input9_A
*781 ANTENNA_output100_A
*782 ANTENNA_rebuffer6_A
*783 FILLER_0_109
*784 FILLER_0_111
*785 FILLER_0_113
*786 FILLER_0_117
*787 FILLER_0_119
*788 FILLER_0_132
*789 FILLER_0_139
*790 FILLER_0_141
*791 FILLER_0_146
*792 FILLER_0_15
*793 FILLER_0_150
*794 FILLER_0_158
*795 FILLER_0_162
*796 FILLER_0_167
*797 FILLER_0_169
*798 FILLER_0_174
*799 FILLER_0_181
*800 FILLER_0_188
*801 FILLER_0_192
*802 FILLER_0_197
*803 FILLER_0_211
*804 FILLER_0_216
*805 FILLER_0_223
*806 FILLER_0_225
*807 FILLER_0_230
*808 FILLER_0_237
*809 FILLER_0_244
*810 FILLER_0_251
*811 FILLER_0_253
*812 FILLER_0_256
*813 FILLER_0_264
*814 FILLER_0_267
*815 FILLER_0_27
*816 FILLER_0_272
*817 FILLER_0_279
*818 FILLER_0_281
*819 FILLER_0_286
*820 FILLER_0_29
*821 FILLER_0_290
*822 FILLER_0_3
*823 FILLER_0_302
*824 FILLER_0_306
*825 FILLER_0_309
*826 FILLER_0_321
*827 FILLER_0_333
*828 FILLER_0_335
*829 FILLER_0_337
*830 FILLER_0_349
*831 FILLER_0_361
*832 FILLER_0_363
*833 FILLER_0_365
*834 FILLER_0_373
*835 FILLER_0_391
*836 FILLER_0_393
*837 FILLER_0_405
*838 FILLER_0_41
*839 FILLER_0_53
*840 FILLER_0_55
*841 FILLER_0_57
*842 FILLER_0_69
*843 FILLER_0_81
*844 FILLER_0_83
*845 FILLER_0_85
*846 FILLER_0_97
*847 FILLER_10_109
*848 FILLER_10_113
*849 FILLER_10_120
*850 FILLER_10_127
*851 FILLER_10_138
*852 FILLER_10_141
*853 FILLER_10_15
*854 FILLER_10_153
*855 FILLER_10_165
*856 FILLER_10_169
*857 FILLER_10_178
*858 FILLER_10_187
*859 FILLER_10_195
*860 FILLER_10_197
*861 FILLER_10_205
*862 FILLER_10_214
*863 FILLER_10_225
*864 FILLER_10_230
*865 FILLER_10_240
*866 FILLER_10_251
*867 FILLER_10_253
*868 FILLER_10_265
*869 FILLER_10_27
*870 FILLER_10_282
*871 FILLER_10_286
*872 FILLER_10_29
*873 FILLER_10_296
*874 FILLER_10_3
*875 FILLER_10_305
*876 FILLER_10_307
*877 FILLER_10_309
*878 FILLER_10_313
*879 FILLER_10_325
*880 FILLER_10_337
*881 FILLER_10_349
*882 FILLER_10_361
*883 FILLER_10_363
*884 FILLER_10_365
*885 FILLER_10_383
*886 FILLER_10_392
*887 FILLER_10_406
*888 FILLER_10_41
*889 FILLER_10_53
*890 FILLER_10_65
*891 FILLER_10_77
*892 FILLER_10_81
*893 FILLER_10_83
*894 FILLER_10_85
*895 FILLER_10_97
*896 FILLER_11_105
*897 FILLER_11_111
*898 FILLER_11_113
*899 FILLER_11_126
*900 FILLER_11_138
*901 FILLER_11_15
*902 FILLER_11_150
*903 FILLER_11_162
*904 FILLER_11_166
*905 FILLER_11_169
*906 FILLER_11_181
*907 FILLER_11_193
*908 FILLER_11_205
*909 FILLER_11_217
*910 FILLER_11_221
*911 FILLER_11_223
*912 FILLER_11_225
*913 FILLER_11_233
*914 FILLER_11_245
*915 FILLER_11_257
*916 FILLER_11_265
*917 FILLER_11_269
*918 FILLER_11_27
*919 FILLER_11_271
*920 FILLER_11_279
*921 FILLER_11_281
*922 FILLER_11_3
*923 FILLER_11_302
*924 FILLER_11_307
*925 FILLER_11_311
*926 FILLER_11_323
*927 FILLER_11_335
*928 FILLER_11_337
*929 FILLER_11_349
*930 FILLER_11_361
*931 FILLER_11_365
*932 FILLER_11_369
*933 FILLER_11_371
*934 FILLER_11_374
*935 FILLER_11_381
*936 FILLER_11_39
*937 FILLER_11_391
*938 FILLER_11_393
*939 FILLER_11_402
*940 FILLER_11_406
*941 FILLER_11_51
*942 FILLER_11_55
*943 FILLER_11_57
*944 FILLER_11_69
*945 FILLER_11_81
*946 FILLER_11_93
*947 FILLER_12_103
*948 FILLER_12_105
*949 FILLER_12_109
*950 FILLER_12_111
*951 FILLER_12_120
*952 FILLER_12_132
*953 FILLER_12_141
*954 FILLER_12_15
*955 FILLER_12_153
*956 FILLER_12_165
*957 FILLER_12_177
*958 FILLER_12_189
*959 FILLER_12_193
*960 FILLER_12_195
*961 FILLER_12_197
*962 FILLER_12_209
*963 FILLER_12_221
*964 FILLER_12_233
*965 FILLER_12_245
*966 FILLER_12_249
*967 FILLER_12_251
*968 FILLER_12_253
*969 FILLER_12_265
*970 FILLER_12_27
*971 FILLER_12_277
*972 FILLER_12_29
*973 FILLER_12_294
*974 FILLER_12_3
*975 FILLER_12_303
*976 FILLER_12_307
*977 FILLER_12_309
*978 FILLER_12_321
*979 FILLER_12_333
*980 FILLER_12_345
*981 FILLER_12_351
*982 FILLER_12_359
*983 FILLER_12_363
*984 FILLER_12_365
*985 FILLER_12_387
*986 FILLER_12_397
*987 FILLER_12_403
*988 FILLER_12_41
*989 FILLER_12_53
*990 FILLER_12_65
*991 FILLER_12_77
*992 FILLER_12_81
*993 FILLER_12_83
*994 FILLER_12_85
*995 FILLER_13_106
*996 FILLER_13_111
*997 FILLER_13_113
*998 FILLER_13_121
*999 FILLER_13_123
*1000 FILLER_13_126
*1001 FILLER_13_149
*1002 FILLER_13_15
*1003 FILLER_13_153
*1004 FILLER_13_165
*1005 FILLER_13_167
*1006 FILLER_13_169
*1007 FILLER_13_172
*1008 FILLER_13_180
*1009 FILLER_13_182
*1010 FILLER_13_185
*1011 FILLER_13_189
*1012 FILLER_13_191
*1013 FILLER_13_194
*1014 FILLER_13_206
*1015 FILLER_13_218
*1016 FILLER_13_222
*1017 FILLER_13_225
*1018 FILLER_13_237
*1019 FILLER_13_249
*1020 FILLER_13_261
*1021 FILLER_13_27
*1022 FILLER_13_273
*1023 FILLER_13_277
*1024 FILLER_13_279
*1025 FILLER_13_281
*1026 FILLER_13_293
*1027 FILLER_13_295
*1028 FILLER_13_299
*1029 FILLER_13_3
*1030 FILLER_13_311
*1031 FILLER_13_323
*1032 FILLER_13_335
*1033 FILLER_13_337
*1034 FILLER_13_345
*1035 FILLER_13_349
*1036 FILLER_13_371
*1037 FILLER_13_381
*1038 FILLER_13_389
*1039 FILLER_13_39
*1040 FILLER_13_391
*1041 FILLER_13_393
*1042 FILLER_13_406
*1043 FILLER_13_51
*1044 FILLER_13_55
*1045 FILLER_13_57
*1046 FILLER_13_69
*1047 FILLER_13_73
*1048 FILLER_13_81
*1049 FILLER_13_93
*1050 FILLER_13_97
*1051 FILLER_14_102
*1052 FILLER_14_108
*1053 FILLER_14_127
*1054 FILLER_14_129
*1055 FILLER_14_138
*1056 FILLER_14_141
*1057 FILLER_14_15
*1058 FILLER_14_150
*1059 FILLER_14_164
*1060 FILLER_14_168
*1061 FILLER_14_178
*1062 FILLER_14_186
*1063 FILLER_14_193
*1064 FILLER_14_195
*1065 FILLER_14_197
*1066 FILLER_14_199
*1067 FILLER_14_204
*1068 FILLER_14_208
*1069 FILLER_14_220
*1070 FILLER_14_232
*1071 FILLER_14_244
*1072 FILLER_14_253
*1073 FILLER_14_257
*1074 FILLER_14_261
*1075 FILLER_14_263
*1076 FILLER_14_266
*1077 FILLER_14_27
*1078 FILLER_14_278
*1079 FILLER_14_29
*1080 FILLER_14_290
*1081 FILLER_14_3
*1082 FILLER_14_302
*1083 FILLER_14_306
*1084 FILLER_14_309
*1085 FILLER_14_321
*1086 FILLER_14_333
*1087 FILLER_14_337
*1088 FILLER_14_346
*1089 FILLER_14_350
*1090 FILLER_14_354
*1091 FILLER_14_362
*1092 FILLER_14_365
*1093 FILLER_14_377
*1094 FILLER_14_388
*1095 FILLER_14_406
*1096 FILLER_14_41
*1097 FILLER_14_53
*1098 FILLER_14_61
*1099 FILLER_14_65
*1100 FILLER_14_80
*1101 FILLER_14_85
*1102 FILLER_14_89
*1103 FILLER_14_94
*1104 FILLER_15_107
*1105 FILLER_15_111
*1106 FILLER_15_113
*1107 FILLER_15_125
*1108 FILLER_15_137
*1109 FILLER_15_146
*1110 FILLER_15_15
*1111 FILLER_15_151
*1112 FILLER_15_167
*1113 FILLER_15_169
*1114 FILLER_15_192
*1115 FILLER_15_199
*1116 FILLER_15_201
*1117 FILLER_15_210
*1118 FILLER_15_217
*1119 FILLER_15_221
*1120 FILLER_15_223
*1121 FILLER_15_225
*1122 FILLER_15_229
*1123 FILLER_15_231
*1124 FILLER_15_235
*1125 FILLER_15_239
*1126 FILLER_15_243
*1127 FILLER_15_250
*1128 FILLER_15_262
*1129 FILLER_15_266
*1130 FILLER_15_268
*1131 FILLER_15_27
*1132 FILLER_15_271
*1133 FILLER_15_273
*1134 FILLER_15_279
*1135 FILLER_15_281
*1136 FILLER_15_283
*1137 FILLER_15_286
*1138 FILLER_15_3
*1139 FILLER_15_309
*1140 FILLER_15_313
*1141 FILLER_15_325
*1142 FILLER_15_333
*1143 FILLER_15_335
*1144 FILLER_15_337
*1145 FILLER_15_349
*1146 FILLER_15_361
*1147 FILLER_15_373
*1148 FILLER_15_381
*1149 FILLER_15_384
*1150 FILLER_15_39
*1151 FILLER_15_391
*1152 FILLER_15_393
*1153 FILLER_15_405
*1154 FILLER_15_51
*1155 FILLER_15_55
*1156 FILLER_15_57
*1157 FILLER_15_83
*1158 FILLER_15_95
*1159 FILLER_16_109
*1160 FILLER_16_121
*1161 FILLER_16_124
*1162 FILLER_16_128
*1163 FILLER_16_136
*1164 FILLER_16_139
*1165 FILLER_16_141
*1166 FILLER_16_144
*1167 FILLER_16_158
*1168 FILLER_16_18
*1169 FILLER_16_183
*1170 FILLER_16_193
*1171 FILLER_16_195
*1172 FILLER_16_197
*1173 FILLER_16_209
*1174 FILLER_16_221
*1175 FILLER_16_231
*1176 FILLER_16_233
*1177 FILLER_16_242
*1178 FILLER_16_244
*1179 FILLER_16_248
*1180 FILLER_16_253
*1181 FILLER_16_26
*1182 FILLER_16_262
*1183 FILLER_16_266
*1184 FILLER_16_269
*1185 FILLER_16_29
*1186 FILLER_16_292
*1187 FILLER_16_3
*1188 FILLER_16_302
*1189 FILLER_16_306
*1190 FILLER_16_309
*1191 FILLER_16_318
*1192 FILLER_16_330
*1193 FILLER_16_342
*1194 FILLER_16_354
*1195 FILLER_16_362
*1196 FILLER_16_365
*1197 FILLER_16_377
*1198 FILLER_16_381
*1199 FILLER_16_385
*1200 FILLER_16_392
*1201 FILLER_16_406
*1202 FILLER_16_41
*1203 FILLER_16_53
*1204 FILLER_16_57
*1205 FILLER_16_6
*1206 FILLER_16_64
*1207 FILLER_16_71
*1208 FILLER_16_75
*1209 FILLER_16_79
*1210 FILLER_16_83
*1211 FILLER_16_85
*1212 FILLER_16_97
*1213 FILLER_17_105
*1214 FILLER_17_109
*1215 FILLER_17_111
*1216 FILLER_17_113
*1217 FILLER_17_115
*1218 FILLER_17_119
*1219 FILLER_17_121
*1220 FILLER_17_127
*1221 FILLER_17_131
*1222 FILLER_17_143
*1223 FILLER_17_155
*1224 FILLER_17_16
*1225 FILLER_17_167
*1226 FILLER_17_169
*1227 FILLER_17_173
*1228 FILLER_17_183
*1229 FILLER_17_185
*1230 FILLER_17_194
*1231 FILLER_17_196
*1232 FILLER_17_217
*1233 FILLER_17_223
*1234 FILLER_17_225
*1235 FILLER_17_247
*1236 FILLER_17_269
*1237 FILLER_17_279
*1238 FILLER_17_28
*1239 FILLER_17_281
*1240 FILLER_17_290
*1241 FILLER_17_3
*1242 FILLER_17_300
*1243 FILLER_17_309
*1244 FILLER_17_313
*1245 FILLER_17_325
*1246 FILLER_17_333
*1247 FILLER_17_335
*1248 FILLER_17_337
*1249 FILLER_17_349
*1250 FILLER_17_361
*1251 FILLER_17_373
*1252 FILLER_17_385
*1253 FILLER_17_389
*1254 FILLER_17_391
*1255 FILLER_17_393
*1256 FILLER_17_40
*1257 FILLER_17_406
*1258 FILLER_17_52
*1259 FILLER_17_57
*1260 FILLER_17_69
*1261 FILLER_17_81
*1262 FILLER_17_93
*1263 FILLER_18_120
*1264 FILLER_18_130
*1265 FILLER_18_134
*1266 FILLER_18_138
*1267 FILLER_18_141
*1268 FILLER_18_153
*1269 FILLER_18_173
*1270 FILLER_18_18
*1271 FILLER_18_183
*1272 FILLER_18_187
*1273 FILLER_18_191
*1274 FILLER_18_195
*1275 FILLER_18_197
*1276 FILLER_18_200
*1277 FILLER_18_204
*1278 FILLER_18_216
*1279 FILLER_18_220
*1280 FILLER_18_227
*1281 FILLER_18_237
*1282 FILLER_18_245
*1283 FILLER_18_249
*1284 FILLER_18_251
*1285 FILLER_18_253
*1286 FILLER_18_257
*1287 FILLER_18_26
*1288 FILLER_18_271
*1289 FILLER_18_280
*1290 FILLER_18_29
*1291 FILLER_18_290
*1292 FILLER_18_294
*1293 FILLER_18_298
*1294 FILLER_18_3
*1295 FILLER_18_302
*1296 FILLER_18_306
*1297 FILLER_18_309
*1298 FILLER_18_321
*1299 FILLER_18_333
*1300 FILLER_18_345
*1301 FILLER_18_357
*1302 FILLER_18_361
*1303 FILLER_18_363
*1304 FILLER_18_365
*1305 FILLER_18_377
*1306 FILLER_18_389
*1307 FILLER_18_401
*1308 FILLER_18_405
*1309 FILLER_18_41
*1310 FILLER_18_53
*1311 FILLER_18_6
*1312 FILLER_18_65
*1313 FILLER_18_77
*1314 FILLER_18_81
*1315 FILLER_18_83
*1316 FILLER_18_85
*1317 FILLER_18_97
*1318 FILLER_19_101
*1319 FILLER_19_111
*1320 FILLER_19_113
*1321 FILLER_19_124
*1322 FILLER_19_149
*1323 FILLER_19_153
*1324 FILLER_19_16
*1325 FILLER_19_165
*1326 FILLER_19_167
*1327 FILLER_19_169
*1328 FILLER_19_181
*1329 FILLER_19_193
*1330 FILLER_19_205
*1331 FILLER_19_217
*1332 FILLER_19_221
*1333 FILLER_19_223
*1334 FILLER_19_225
*1335 FILLER_19_237
*1336 FILLER_19_249
*1337 FILLER_19_261
*1338 FILLER_19_273
*1339 FILLER_19_278
*1340 FILLER_19_28
*1341 FILLER_19_281
*1342 FILLER_19_293
*1343 FILLER_19_3
*1344 FILLER_19_305
*1345 FILLER_19_317
*1346 FILLER_19_329
*1347 FILLER_19_333
*1348 FILLER_19_335
*1349 FILLER_19_337
*1350 FILLER_19_349
*1351 FILLER_19_361
*1352 FILLER_19_373
*1353 FILLER_19_385
*1354 FILLER_19_389
*1355 FILLER_19_391
*1356 FILLER_19_393
*1357 FILLER_19_396
*1358 FILLER_19_398
*1359 FILLER_19_40
*1360 FILLER_19_401
*1361 FILLER_19_406
*1362 FILLER_19_52
*1363 FILLER_19_57
*1364 FILLER_19_69
*1365 FILLER_19_81
*1366 FILLER_1_105
*1367 FILLER_1_109
*1368 FILLER_1_111
*1369 FILLER_1_113
*1370 FILLER_1_117
*1371 FILLER_1_120
*1372 FILLER_1_131
*1373 FILLER_1_136
*1374 FILLER_1_140
*1375 FILLER_1_144
*1376 FILLER_1_15
*1377 FILLER_1_156
*1378 FILLER_1_169
*1379 FILLER_1_172
*1380 FILLER_1_176
*1381 FILLER_1_180
*1382 FILLER_1_184
*1383 FILLER_1_196
*1384 FILLER_1_208
*1385 FILLER_1_216
*1386 FILLER_1_220
*1387 FILLER_1_225
*1388 FILLER_1_232
*1389 FILLER_1_236
*1390 FILLER_1_240
*1391 FILLER_1_244
*1392 FILLER_1_256
*1393 FILLER_1_268
*1394 FILLER_1_27
*1395 FILLER_1_272
*1396 FILLER_1_276
*1397 FILLER_1_281
*1398 FILLER_1_293
*1399 FILLER_1_3
*1400 FILLER_1_305
*1401 FILLER_1_317
*1402 FILLER_1_329
*1403 FILLER_1_333
*1404 FILLER_1_335
*1405 FILLER_1_337
*1406 FILLER_1_349
*1407 FILLER_1_361
*1408 FILLER_1_373
*1409 FILLER_1_377
*1410 FILLER_1_39
*1411 FILLER_1_391
*1412 FILLER_1_393
*1413 FILLER_1_406
*1414 FILLER_1_51
*1415 FILLER_1_55
*1416 FILLER_1_57
*1417 FILLER_1_69
*1418 FILLER_1_81
*1419 FILLER_1_93
*1420 FILLER_20_101
*1421 FILLER_20_105
*1422 FILLER_20_109
*1423 FILLER_20_12
*1424 FILLER_20_131
*1425 FILLER_20_135
*1426 FILLER_20_139
*1427 FILLER_20_141
*1428 FILLER_20_150
*1429 FILLER_20_162
*1430 FILLER_20_174
*1431 FILLER_20_186
*1432 FILLER_20_194
*1433 FILLER_20_197
*1434 FILLER_20_209
*1435 FILLER_20_221
*1436 FILLER_20_233
*1437 FILLER_20_24
*1438 FILLER_20_245
*1439 FILLER_20_249
*1440 FILLER_20_251
*1441 FILLER_20_253
*1442 FILLER_20_265
*1443 FILLER_20_273
*1444 FILLER_20_281
*1445 FILLER_20_285
*1446 FILLER_20_289
*1447 FILLER_20_29
*1448 FILLER_20_293
*1449 FILLER_20_3
*1450 FILLER_20_305
*1451 FILLER_20_307
*1452 FILLER_20_309
*1453 FILLER_20_321
*1454 FILLER_20_333
*1455 FILLER_20_345
*1456 FILLER_20_357
*1457 FILLER_20_361
*1458 FILLER_20_363
*1459 FILLER_20_365
*1460 FILLER_20_377
*1461 FILLER_20_385
*1462 FILLER_20_392
*1463 FILLER_20_406
*1464 FILLER_20_41
*1465 FILLER_20_53
*1466 FILLER_20_65
*1467 FILLER_20_77
*1468 FILLER_20_8
*1469 FILLER_20_81
*1470 FILLER_20_83
*1471 FILLER_20_85
*1472 FILLER_20_97
*1473 FILLER_21_105
*1474 FILLER_21_109
*1475 FILLER_21_11
*1476 FILLER_21_111
*1477 FILLER_21_113
*1478 FILLER_21_117
*1479 FILLER_21_127
*1480 FILLER_21_137
*1481 FILLER_21_149
*1482 FILLER_21_161
*1483 FILLER_21_165
*1484 FILLER_21_167
*1485 FILLER_21_169
*1486 FILLER_21_181
*1487 FILLER_21_193
*1488 FILLER_21_205
*1489 FILLER_21_217
*1490 FILLER_21_221
*1491 FILLER_21_223
*1492 FILLER_21_225
*1493 FILLER_21_23
*1494 FILLER_21_237
*1495 FILLER_21_249
*1496 FILLER_21_261
*1497 FILLER_21_273
*1498 FILLER_21_277
*1499 FILLER_21_279
*1500 FILLER_21_281
*1501 FILLER_21_293
*1502 FILLER_21_3
*1503 FILLER_21_305
*1504 FILLER_21_317
*1505 FILLER_21_329
*1506 FILLER_21_333
*1507 FILLER_21_335
*1508 FILLER_21_337
*1509 FILLER_21_349
*1510 FILLER_21_35
*1511 FILLER_21_361
*1512 FILLER_21_373
*1513 FILLER_21_385
*1514 FILLER_21_387
*1515 FILLER_21_390
*1516 FILLER_21_393
*1517 FILLER_21_397
*1518 FILLER_21_401
*1519 FILLER_21_406
*1520 FILLER_21_47
*1521 FILLER_21_55
*1522 FILLER_21_57
*1523 FILLER_21_69
*1524 FILLER_21_7
*1525 FILLER_21_81
*1526 FILLER_21_93
*1527 FILLER_22_109
*1528 FILLER_22_113
*1529 FILLER_22_122
*1530 FILLER_22_133
*1531 FILLER_22_137
*1532 FILLER_22_139
*1533 FILLER_22_141
*1534 FILLER_22_144
*1535 FILLER_22_15
*1536 FILLER_22_156
*1537 FILLER_22_168
*1538 FILLER_22_180
*1539 FILLER_22_192
*1540 FILLER_22_197
*1541 FILLER_22_209
*1542 FILLER_22_221
*1543 FILLER_22_233
*1544 FILLER_22_245
*1545 FILLER_22_249
*1546 FILLER_22_251
*1547 FILLER_22_253
*1548 FILLER_22_265
*1549 FILLER_22_27
*1550 FILLER_22_277
*1551 FILLER_22_289
*1552 FILLER_22_29
*1553 FILLER_22_3
*1554 FILLER_22_301
*1555 FILLER_22_305
*1556 FILLER_22_307
*1557 FILLER_22_309
*1558 FILLER_22_321
*1559 FILLER_22_333
*1560 FILLER_22_345
*1561 FILLER_22_357
*1562 FILLER_22_361
*1563 FILLER_22_363
*1564 FILLER_22_365
*1565 FILLER_22_377
*1566 FILLER_22_381
*1567 FILLER_22_388
*1568 FILLER_22_406
*1569 FILLER_22_41
*1570 FILLER_22_53
*1571 FILLER_22_65
*1572 FILLER_22_77
*1573 FILLER_22_81
*1574 FILLER_22_83
*1575 FILLER_22_85
*1576 FILLER_22_97
*1577 FILLER_23_105
*1578 FILLER_23_109
*1579 FILLER_23_111
*1580 FILLER_23_113
*1581 FILLER_23_115
*1582 FILLER_23_123
*1583 FILLER_23_135
*1584 FILLER_23_147
*1585 FILLER_23_15
*1586 FILLER_23_159
*1587 FILLER_23_167
*1588 FILLER_23_169
*1589 FILLER_23_181
*1590 FILLER_23_193
*1591 FILLER_23_205
*1592 FILLER_23_217
*1593 FILLER_23_221
*1594 FILLER_23_223
*1595 FILLER_23_225
*1596 FILLER_23_237
*1597 FILLER_23_249
*1598 FILLER_23_261
*1599 FILLER_23_27
*1600 FILLER_23_273
*1601 FILLER_23_277
*1602 FILLER_23_279
*1603 FILLER_23_281
*1604 FILLER_23_293
*1605 FILLER_23_3
*1606 FILLER_23_305
*1607 FILLER_23_317
*1608 FILLER_23_329
*1609 FILLER_23_333
*1610 FILLER_23_335
*1611 FILLER_23_337
*1612 FILLER_23_349
*1613 FILLER_23_361
*1614 FILLER_23_373
*1615 FILLER_23_385
*1616 FILLER_23_389
*1617 FILLER_23_39
*1618 FILLER_23_391
*1619 FILLER_23_393
*1620 FILLER_23_401
*1621 FILLER_23_403
*1622 FILLER_23_406
*1623 FILLER_23_51
*1624 FILLER_23_55
*1625 FILLER_23_57
*1626 FILLER_23_69
*1627 FILLER_23_81
*1628 FILLER_23_93
*1629 FILLER_24_109
*1630 FILLER_24_121
*1631 FILLER_24_133
*1632 FILLER_24_137
*1633 FILLER_24_139
*1634 FILLER_24_141
*1635 FILLER_24_15
*1636 FILLER_24_153
*1637 FILLER_24_165
*1638 FILLER_24_177
*1639 FILLER_24_189
*1640 FILLER_24_193
*1641 FILLER_24_195
*1642 FILLER_24_197
*1643 FILLER_24_209
*1644 FILLER_24_221
*1645 FILLER_24_233
*1646 FILLER_24_245
*1647 FILLER_24_249
*1648 FILLER_24_251
*1649 FILLER_24_253
*1650 FILLER_24_265
*1651 FILLER_24_27
*1652 FILLER_24_277
*1653 FILLER_24_289
*1654 FILLER_24_29
*1655 FILLER_24_3
*1656 FILLER_24_301
*1657 FILLER_24_305
*1658 FILLER_24_307
*1659 FILLER_24_309
*1660 FILLER_24_321
*1661 FILLER_24_333
*1662 FILLER_24_345
*1663 FILLER_24_357
*1664 FILLER_24_361
*1665 FILLER_24_363
*1666 FILLER_24_365
*1667 FILLER_24_377
*1668 FILLER_24_394
*1669 FILLER_24_398
*1670 FILLER_24_402
*1671 FILLER_24_406
*1672 FILLER_24_41
*1673 FILLER_24_53
*1674 FILLER_24_65
*1675 FILLER_24_77
*1676 FILLER_24_81
*1677 FILLER_24_83
*1678 FILLER_24_85
*1679 FILLER_24_97
*1680 FILLER_25_105
*1681 FILLER_25_109
*1682 FILLER_25_111
*1683 FILLER_25_113
*1684 FILLER_25_125
*1685 FILLER_25_137
*1686 FILLER_25_149
*1687 FILLER_25_15
*1688 FILLER_25_161
*1689 FILLER_25_165
*1690 FILLER_25_167
*1691 FILLER_25_169
*1692 FILLER_25_181
*1693 FILLER_25_193
*1694 FILLER_25_205
*1695 FILLER_25_217
*1696 FILLER_25_221
*1697 FILLER_25_223
*1698 FILLER_25_225
*1699 FILLER_25_237
*1700 FILLER_25_249
*1701 FILLER_25_261
*1702 FILLER_25_27
*1703 FILLER_25_273
*1704 FILLER_25_277
*1705 FILLER_25_279
*1706 FILLER_25_281
*1707 FILLER_25_293
*1708 FILLER_25_3
*1709 FILLER_25_305
*1710 FILLER_25_317
*1711 FILLER_25_329
*1712 FILLER_25_333