*SPEF "ieee 1481-1999"
*DESIGN "wb_slave_to_mem_sys_ports"
*DATE "02:26:01 Thursday March 26, 2026"
*VENDOR "The OpenROAD Project"
*PROGRAM "OpenROAD"
*VERSION "edf00dff99f6c40d67a30c0e22a8191c5d2ed9d6"
*DESIGN_FLOW "NAME_SCOPE LOCAL" "PIN_CAP NONE"
*DIVIDER /
*DELIMITER :
*BUS_DELIMITER []
*T_UNIT 1 NS
*C_UNIT 1 PF
*R_UNIT 1 OHM
*L_UNIT 1 HENRY

*NAME_MAP
*1 rd_buff_empty
*2 rd_buff_rdata[0]
*3 rd_buff_rdata[1]
*4 rd_buff_rdata[2]
*5 rd_buff_rdata[3]
*6 rd_buff_rdata[4]
*7 rd_buff_rdata[5]
*8 rd_buff_rdata[6]
*9 rd_buff_rdata[7]
*10 rd_buff_rden
*11 rpg_ack
*12 net123
*13 net124
*14 rpg_burst_length[2]
*15 net125
*16 net126
*17 net127
*18 net128
*19 net129
*20 net130
*21 net131
*22 rpg_busy
*23 rpg_st_addr[0]
*24 rpg_st_addr[1]
*25 rpg_st_addr[2]
*26 rpg_st_addr[3]
*27 rpg_st_addr[4]
*28 rpg_st_addr[5]
*29 rpg_st_addr[6]
*30 rpg_st_addr[7]
*31 rpg_st_addr[8]
*32 rpg_st_addr[9]
*33 up_en
*34 up_soft_reset
*37 wb_ack_o
*38 wb_adr_i[0]
*39 wb_adr_i[10]
*40 wb_adr_i[11]
*41 wb_adr_i[12]
*42 wb_adr_i[13]
*43 wb_adr_i[14]
*44 wb_adr_i[15]
*45 wb_adr_i[16]
*46 wb_adr_i[17]
*47 wb_adr_i[18]
*48 wb_adr_i[19]
*49 wb_adr_i[1]
*50 wb_adr_i[20]
*51 wb_adr_i[21]
*52 wb_adr_i[22]
*53 wb_adr_i[23]
*54 wb_adr_i[24]
*55 wb_adr_i[25]
*56 wb_adr_i[26]
*57 wb_adr_i[27]
*58 wb_adr_i[28]
*59 wb_adr_i[29]
*60 wb_adr_i[2]
*61 wb_adr_i[30]
*62 wb_adr_i[31]
*63 wb_adr_i[3]
*64 wb_adr_i[4]
*65 wb_adr_i[5]
*66 wb_adr_i[6]
*67 wb_adr_i[7]
*68 wb_adr_i[8]
*69 wb_adr_i[9]
*70 wb_clk_i
*71 wb_cyc_i
*72 wb_dat_i[0]
*73 wb_dat_i[10]
*74 wb_dat_i[11]
*75 wb_dat_i[12]
*76 wb_dat_i[13]
*77 wb_dat_i[14]
*78 wb_dat_i[15]
*79 wb_dat_i[16]
*80 wb_dat_i[17]
*81 wb_dat_i[18]
*82 wb_dat_i[19]
*83 wb_dat_i[1]
*84 wb_dat_i[20]
*85 wb_dat_i[21]
*86 wb_dat_i[22]
*87 wb_dat_i[23]
*88 wb_dat_i[24]
*89 wb_dat_i[25]
*90 wb_dat_i[26]
*91 wb_dat_i[27]
*92 wb_dat_i[28]
*93 wb_dat_i[29]
*94 wb_dat_i[2]
*95 wb_dat_i[30]
*96 wb_dat_i[31]
*97 wb_dat_i[3]
*98 wb_dat_i[4]
*99 wb_dat_i[5]
*100 wb_dat_i[6]
*101 wb_dat_i[7]
*102 wb_dat_i[8]
*103 wb_dat_i[9]
*104 wb_dat_o[0]
*105 wb_dat_o[10]
*106 wb_dat_o[11]
*107 wb_dat_o[12]
*108 wb_dat_o[13]
*109 wb_dat_o[14]
*110 wb_dat_o[15]
*111 wb_dat_o[16]
*112 wb_dat_o[17]
*113 wb_dat_o[18]
*114 wb_dat_o[19]
*115 wb_dat_o[1]
*116 wb_dat_o[20]
*117 wb_dat_o[21]
*118 wb_dat_o[22]
*119 wb_dat_o[23]
*120 wb_dat_o[24]
*121 wb_dat_o[25]
*122 wb_dat_o[26]
*123 wb_dat_o[27]
*124 wb_dat_o[28]
*125 wb_dat_o[29]
*126 wb_dat_o[2]
*127 wb_dat_o[30]
*128 wb_dat_o[31]
*129 wb_dat_o[3]
*130 wb_dat_o[4]
*131 wb_dat_o[5]
*132 wb_dat_o[6]
*133 wb_dat_o[7]
*134 wb_dat_o[8]
*135 wb_dat_o[9]
*136 wb_rst_i
*137 wb_sel_i[0]
*138 wb_sel_i[1]
*139 wb_sel_i[2]
*140 wb_sel_i[3]
*141 wb_stb_i
*142 wb_we_i
*143 wpg_ack
*144 wpg_burst_length[0]
*145 net132
*146 net133
*147 net134
*148 net135
*149 net136
*150 net137
*151 net138
*152 net139
*153 net140
*154 wpg_busy
*155 wpg_st_addr[0]
*156 wpg_st_addr[1]
*157 wpg_st_addr[2]
*158 wpg_st_addr[3]
*159 wpg_st_addr[4]
*160 wpg_st_addr[5]
*161 wpg_st_addr[6]
*162 wpg_st_addr[7]
*163 wpg_st_addr[8]
*164 wpg_st_addr[9]
*165 wr_buff_full
*166 wr_buff_wdata[0]
*167 wr_buff_wdata[1]
*168 wr_buff_wdata[2]
*169 wr_buff_wdata[3]
*170 wr_buff_wdata[4]
*171 wr_buff_wdata[5]
*172 wr_buff_wdata[6]
*173 wr_buff_wdata[7]
*174 wr_buff_wren
*175 _000_
*176 _001_
*177 _002_
*178 _003_
*179 _004_
*180 _005_
*181 _006_
*182 _007_
*183 _008_
*184 _009_
*185 _010_
*186 _011_
*187 _012_
*188 _013_
*189 _014_
*190 _015_
*191 _016_
*192 _017_
*193 _018_
*194 _019_
*195 _020_
*196 _021_
*197 _022_
*198 _023_
*199 _024_
*200 _025_
*201 _026_
*202 _027_
*203 _028_
*204 _029_
*205 _030_
*206 _031_
*207 _032_
*208 _033_
*209 _034_
*210 _035_
*211 _036_
*212 _037_
*213 _038_
*214 _039_
*215 _040_
*216 _041_
*217 _042_
*218 _043_
*219 _044_
*220 _045_
*221 _046_
*222 _047_
*223 _048_
*224 _049_
*225 _050_
*226 _051_
*227 _052_
*228 _053_
*229 _054_
*230 _055_
*231 _056_
*232 _057_
*233 _058_
*234 _059_
*235 _060_
*236 _061_
*237 _062_
*238 _063_
*239 _064_
*240 _065_
*241 _066_
*242 _067_
*243 _068_
*244 _069_
*245 _070_
*246 _071_
*247 _072_
*248 _073_
*249 _074_
*250 _075_
*251 _076_
*252 _077_
*253 _078_
*254 _079_
*255 _080_
*256 _081_
*257 _082_
*258 _083_
*259 _084_
*260 _085_
*261 _086_
*262 _087_
*263 _088_
*264 _089_
*265 _090_
*266 _091_
*267 _092_
*268 _093_
*269 _094_
*270 _095_
*271 _096_
*272 _097_
*273 _098_
*274 _099_
*275 _100_
*276 _101_
*277 _102_
*278 _103_
*279 _104_
*280 _105_
*281 _106_
*282 _107_
*283 _108_
*284 _109_
*285 _110_
*286 _111_
*287 _112_
*288 _113_
*289 _114_
*290 _115_
*291 _116_
*292 _117_
*293 _118_
*294 _119_
*295 _120_
*296 _121_
*297 _122_
*298 _123_
*299 _124_
*300 _125_
*301 _126_
*302 _127_
*303 _128_
*304 _129_
*305 _130_
*306 _131_
*307 _132_
*308 _133_
*309 _134_
*310 _135_
*311 _136_
*312 _137_
*313 _138_
*314 _139_
*315 _140_
*316 _141_
*317 _142_
*318 _143_
*319 _144_
*320 _145_
*321 _146_
*322 _147_
*323 _148_
*324 _149_
*325 _150_
*326 clknet_0_wb_clk_i
*327 clknet_3_0__leaf_wb_clk_i
*328 clknet_3_1__leaf_wb_clk_i
*329 clknet_3_2__leaf_wb_clk_i
*330 clknet_3_3__leaf_wb_clk_i
*331 clknet_3_4__leaf_wb_clk_i
*332 clknet_3_5__leaf_wb_clk_i
*333 clknet_3_6__leaf_wb_clk_i
*334 clknet_3_7__leaf_wb_clk_i
*335 cnt\[0\]
*336 cnt\[1\]
*337 net1
*338 net10
*339 net100
*340 net101
*341 net102
*342 net103
*343 net104
*344 net105
*345 net106
*346 net107
*347 net108
*348 net109
*349 net11
*350 net110
*351 net111
*352 net112
*353 net113
*354 net114
*355 net115
*356 net116
*357 net117
*358 net118
*359 net119
*360 net12
*361 net120
*362 net121
*363 net122
*364 net13
*365 net14
*366 net141
*367 net142
*368 net143
*369 net144
*370 net145
*371 net146
*372 net147
*373 net148
*374 net149
*375 net15
*376 net150
*377 net151
*378 net152
*379 net153
*380 net154
*381 net155
*382 net156
*383 net157
*384 net158
*385 net159
*386 net16
*387 net160
*388 net161
*389 net162
*390 net163
*391 net164
*392 net165
*393 net166
*394 net167
*395 net168
*396 net169
*397 net17
*398 net170
*399 net171
*400 net172
*401 net173
*402 net174
*403 net175
*404 net176
*405 net177
*406 net178
*407 net179
*408 net18
*409 net180
*410 net181
*411 net182
*412 net183
*413 net184
*414 net185
*415 net186
*416 net187
*417 net188
*418 net189
*419 net19
*420 net190
*421 net191
*422 net192
*423 net193
*424 net194
*425 net195
*426 net196
*427 net197
*428 net198
*429 net199
*430 net2
*431 net20
*432 net200
*433 net201
*434 net202
*435 net203
*436 net204
*437 net205
*438 net206
*439 net207
*440 net208
*441 net209
*442 net21
*443 net210
*444 net211
*445 net212
*446 net213
*447 net214
*448 net215
*449 net216
*450 net217
*451 net218
*452 net219
*453 net22
*454 net220
*455 net221
*456 net222
*457 net223
*458 net224
*459 net225
*460 net226
*461 net227
*462 net228
*463 net229
*464 net23
*465 net230
*466 net231
*467 net232
*468 net233
*469 net234
*470 net235
*471 net236
*472 net237
*473 net238
*474 net239
*475 net24
*476 net240
*477 net241
*478 net242
*479 net243
*480 net244
*481 net245
*482 net246
*483 net247
*484 net248
*485 net249
*486 net25
*487 net250
*488 net251
*489 net252
*490 net253
*491 net254
*492 net255
*493 net256
*494 net257
*495 net258
*496 net259
*497 net26
*498 net260
*499 net261
*500 net262
*501 net263
*502 net264
*503 net265
*504 net266
*505 net267
*506 net268
*507 net269
*508 net27
*509 net270
*510 net271
*511 net272
*512 net273
*513 net274
*514 net275
*515 net276
*516 net277
*517 net278
*518 net279
*519 net28
*520 net280
*521 net281
*522 net282
*523 net283
*524 net284
*525 net285
*526 net286
*527 net287
*528 net288
*529 net289
*530 net29
*531 net290
*532 net291
*533 net292
*534 net293
*535 net294
*536 net295
*537 net296
*538 net297
*539 net298
*540 net299
*541 net3
*542 net30
*543 net300
*544 net301
*545 net302
*546 net303
*547 net304
*548 net305
*549 net306
*550 net307
*551 net308
*552 net309
*553 net31
*554 net310
*555 net311
*556 net312
*557 net313
*558 net314
*559 net315
*560 net316
*561 net317
*562 net318
*563 net319
*564 net32
*565 net320
*566 net33
*567 net34
*568 net35
*569 net36
*570 net37
*571 net38
*572 net39
*573 net4
*574 net40
*575 net41
*576 net42
*577 net43
*578 net44
*579 net45
*580 net46
*581 net47
*582 net48
*583 net49
*584 net5
*585 net50
*586 net51
*587 net52
*588 net53
*589 net54
*590 net55
*591 net56
*592 net57
*593 net58
*594 net59
*595 net6
*596 net60
*597 net61
*598 net62
*599 net63
*600 net64
*601 net65
*602 net66
*603 net67
*604 net68
*605 net69
*606 net7
*607 net70
*608 net71
*609 net72
*610 net73
*611 net74
*612 net75
*613 net76
*614 net77
*615 net78
*616 net79
*617 net8
*618 net80
*619 net81
*620 net82
*621 net83
*622 net84
*623 net85
*624 net86
*625 net87
*626 net88
*627 net89
*628 net9
*629 net90
*630 net91
*631 net92
*632 net93
*633 net94
*634 net95
*635 net96
*636 net97
*637 net98
*638 net99
*639 rd_pending
*640 wr_pending
*641 ANTENNA_1
*642 ANTENNA__151__A
*643 ANTENNA__151__Y
*644 ANTENNA__153__Y
*645 ANTENNA__156__Y
*646 ANTENNA__157__A
*647 ANTENNA__157__B
*648 ANTENNA__157__Y
*649 ANTENNA__158__B
*650 ANTENNA__158__C
*651 ANTENNA__161__A
*652 ANTENNA__161__B
*653 ANTENNA__161__Y
*654 ANTENNA__163__X
*655 ANTENNA__164__A
*656 ANTENNA__164__X
*657 ANTENNA__165__B
*658 ANTENNA__165__C
*659 ANTENNA__165__D
*660 ANTENNA__166__A2
*661 ANTENNA__166__C1
*662 ANTENNA__167__B
*663 ANTENNA__167__C
*664 ANTENNA__167__D
*665 ANTENNA__168__A2
*666 ANTENNA__168__C1
*667 ANTENNA__169__B
*668 ANTENNA__169__C
*669 ANTENNA__169__D
*670 ANTENNA__170__A2
*671 ANTENNA__170__C1
*672 ANTENNA__171__B
*673 ANTENNA__171__C
*674 ANTENNA__171__D
*675 ANTENNA__172__A1
*676 ANTENNA__172__A2
*677 ANTENNA__172__C1
*678 ANTENNA__173__B
*679 ANTENNA__173__C
*680 ANTENNA__173__D
*681 ANTENNA__174__A2
*682 ANTENNA__174__C1
*683 ANTENNA__175__A
*684 ANTENNA__175__B
*685 ANTENNA__175__C
*686 ANTENNA__175__D
*687 ANTENNA__176__A2
*688 ANTENNA__176__C1
*689 ANTENNA__177__B
*690 ANTENNA__177__C
*691 ANTENNA__177__D
*692 ANTENNA__178__A2
*693 ANTENNA__178__C1
*694 ANTENNA__179__B
*695 ANTENNA__179__C
*696 ANTENNA__179__D
*697 ANTENNA__180__A2
*698 ANTENNA__180__C1
*699 ANTENNA__181__B
*700 ANTENNA__181__C
*701 ANTENNA__181__D
*702 ANTENNA__182__A2
*703 ANTENNA__182__C1
*704 ANTENNA__183__A
*705 ANTENNA__183__B
*706 ANTENNA__183__C
*707 ANTENNA__183__D
*708 ANTENNA__184__A1
*709 ANTENNA__184__A2
*710 ANTENNA__184__C1
*711 ANTENNA__185__B
*712 ANTENNA__185__C
*713 ANTENNA__185__D
*714 ANTENNA__186__A2
*715 ANTENNA__186__C1
*716 ANTENNA__187__A
*717 ANTENNA__187__B
*718 ANTENNA__187__C
*719 ANTENNA__187__D
*720 ANTENNA__188__A2
*721 ANTENNA__188__C1
*722 ANTENNA__189__B
*723 ANTENNA__189__C
*724 ANTENNA__189__D
*725 ANTENNA__190__A2
*726 ANTENNA__190__C1
*727 ANTENNA__191__A
*728 ANTENNA__191__B
*729 ANTENNA__191__C
*730 ANTENNA__191__D
*731 ANTENNA__192__A2
*732 ANTENNA__192__C1
*733 ANTENNA__193__B
*734 ANTENNA__193__C
*735 ANTENNA__193__D
*736 ANTENNA__194__A2
*737 ANTENNA__194__C1
*738 ANTENNA__195__B
*739 ANTENNA__195__C
*740 ANTENNA__195__D
*741 ANTENNA__196__A2
*742 ANTENNA__196__C1
*743 ANTENNA__197__B
*744 ANTENNA__197__C
*745 ANTENNA__197__D
*746 ANTENNA__198__A2
*747 ANTENNA__198__C1
*748 ANTENNA__199__A
*749 ANTENNA__199__B
*750 ANTENNA__199__C
*751 ANTENNA__199__D
*752 ANTENNA__200__A2
*753 ANTENNA__200__C1
*754 ANTENNA__201__B
*755 ANTENNA__201__C
*756 ANTENNA__201__D
*757 ANTENNA__202__A2
*758 ANTENNA__202__C1
*759 ANTENNA__203__A
*760 ANTENNA__203__B
*761 ANTENNA__203__C
*762 ANTENNA__203__D
*763 ANTENNA__204__A2
*764 ANTENNA__204__C1
*765 ANTENNA__205__B
*766 ANTENNA__205__C
*767 ANTENNA__205__D
*768 ANTENNA__206__A2
*769 ANTENNA__206__C1
*770 ANTENNA__207__B
*771 ANTENNA__207__C
*772 ANTENNA__207__D
*773 ANTENNA__208__A2
*774 ANTENNA__208__C1
*775 ANTENNA__209__B
*776 ANTENNA__209__C
*777 ANTENNA__209__D
*778 ANTENNA__210__A2
*779 ANTENNA__210__C1
*780 ANTENNA__211__B
*781 ANTENNA__211__C
*782 ANTENNA__211__D
*783 ANTENNA__212__A2
*784 ANTENNA__212__C1
*785 ANTENNA__213__B
*786 ANTENNA__213__C
*787 ANTENNA__213__D
*788 ANTENNA__214__A2
*789 ANTENNA__214__C1
*790 ANTENNA__215__B
*791 ANTENNA__215__C
*792 ANTENNA__215__D
*793 ANTENNA__216__A2
*794 ANTENNA__216__C1
*795 ANTENNA__217__B
*796 ANTENNA__217__C
*797 ANTENNA__217__D
*798 ANTENNA__218__A2
*799 ANTENNA__218__C1
*800 ANTENNA__219__B
*801 ANTENNA__219__C
*802 ANTENNA__219__D
*803 ANTENNA__220__A2
*804 ANTENNA__220__C1
*805 ANTENNA__221__B
*806 ANTENNA__221__C
*807 ANTENNA__221__D
*808 ANTENNA__222__A2
*809 ANTENNA__222__C1
*810 ANTENNA__223__B
*811 ANTENNA__223__C
*812 ANTENNA__223__D
*813 ANTENNA__224__A2
*814 ANTENNA__224__C1
*815 ANTENNA__225__B
*816 ANTENNA__225__C
*817 ANTENNA__225__D
*818 ANTENNA__226__A2
*819 ANTENNA__226__C1
*820 ANTENNA__227__B
*821 ANTENNA__227__C
*822 ANTENNA__227__D
*823 ANTENNA__228__A2
*824 ANTENNA__228__C1
*825 ANTENNA__229__A2
*826 ANTENNA__229__B1
*827 ANTENNA__230__B
*828 ANTENNA__230__C
*829 ANTENNA__231__A2
*830 ANTENNA__231__C1
*831 ANTENNA__232__B
*832 ANTENNA__232__C
*833 ANTENNA__233__A2
*834 ANTENNA__233__C1
*835 ANTENNA__234__B
*836 ANTENNA__234__C
*837 ANTENNA__235__A2
*838 ANTENNA__235__C1
*839 ANTENNA__236__B
*840 ANTENNA__236__C
*841 ANTENNA__237__A2
*842 ANTENNA__237__C1
*843 ANTENNA__238__B
*844 ANTENNA__238__C
*845 ANTENNA__239__A2
*846 ANTENNA__239__C1
*847 ANTENNA__240__A
*848 ANTENNA__240__B
*849 ANTENNA__240__C
*850 ANTENNA__241__A2
*851 ANTENNA__241__C1
*852 ANTENNA__242__B
*853 ANTENNA__242__C
*854 ANTENNA__243__A2
*855 ANTENNA__243__C1
*856 ANTENNA__244__B
*857 ANTENNA__244__C
*858 ANTENNA__245__A2
*859 ANTENNA__245__C1
*860 ANTENNA__246__B
*861 ANTENNA__246__C
*862 ANTENNA__247__A2
*863 ANTENNA__247__C1
*864 ANTENNA__248__B
*865 ANTENNA__248__C
*866 ANTENNA__249__A2
*867 ANTENNA__249__C1
*868 ANTENNA__250__A2
*869 ANTENNA__250__B1
*870 ANTENNA__252__A
*871 ANTENNA__252__B
*872 ANTENNA__253__A
*873 ANTENNA__255__A2
*874 ANTENNA__255__A3
*875 ANTENNA__257__B
*876 ANTENNA__257__C
*877 ANTENNA__258__A2
*878 ANTENNA__258__C1
*879 ANTENNA__259__B
*880 ANTENNA__259__C
*881 ANTENNA__260__A2
*882 ANTENNA__260__C1
*883 ANTENNA__261__B
*884 ANTENNA__261__C
*885 ANTENNA__262__A2
*886 ANTENNA__262__C1
*887 ANTENNA__263__B
*888 ANTENNA__263__C
*889 ANTENNA__264__A2
*890 ANTENNA__264__C1
*891 ANTENNA__265__B
*892 ANTENNA__265__C
*893 ANTENNA__266__A2
*894 ANTENNA__266__C1
*895 ANTENNA__267__A
*896 ANTENNA__267__B
*897 ANTENNA__267__C
*898 ANTENNA__268__A1
*899 ANTENNA__268__A2
*900 ANTENNA__268__C1
*901 ANTENNA__269__B
*902 ANTENNA__269__C
*903 ANTENNA__270__A2
*904 ANTENNA__270__C1
*905 ANTENNA__271__B
*906 ANTENNA__271__C
*907 ANTENNA__272__A2
*908 ANTENNA__272__C1
*909 ANTENNA__273__B
*910 ANTENNA__273__C
*911 ANTENNA__274__A2
*912 ANTENNA__274__C1
*913 ANTENNA__275__B
*914 ANTENNA__275__C
*915 ANTENNA__276__A2
*916 ANTENNA__276__C1
*917 ANTENNA__277__A
*918 ANTENNA__277__B
*919 ANTENNA__278__A1
*920 ANTENNA__278__A2
*921 ANTENNA__280__B
*922 ANTENNA__280__C
*923 ANTENNA__281__A2
*924 ANTENNA__281__C1
*925 ANTENNA__282__B
*926 ANTENNA__282__C
*927 ANTENNA__283__A2
*928 ANTENNA__283__C1
*929 ANTENNA__284__B
*930 ANTENNA__284__C
*931 ANTENNA__285__A2
*932 ANTENNA__285__C1
*933 ANTENNA__286__B
*934 ANTENNA__286__C
*935 ANTENNA__287__A2
*936 ANTENNA__287__C1
*937 ANTENNA__288__B
*938 ANTENNA__288__C
*939 ANTENNA__289__A2
*940 ANTENNA__289__C1
*941 ANTENNA__290__B
*942 ANTENNA__290__C
*943 ANTENNA__291__A2
*944 ANTENNA__291__C1
*945 ANTENNA__292__B
*946 ANTENNA__292__C
*947 ANTENNA__293__A2
*948 ANTENNA__293__C1
*949 ANTENNA__294__B
*950 ANTENNA__294__C
*951 ANTENNA__295__A2
*952 ANTENNA__295__C1
*953 ANTENNA__296__A2
*954 ANTENNA__296__C1
*955 ANTENNA__297__A2
*956 ANTENNA__297__C1
*957 ANTENNA__298__A2
*958 ANTENNA__299__A2
*959 ANTENNA__300__A2
*960 ANTENNA__301__A
*961 ANTENNA__302__CLK
*962 ANTENNA__303__CLK
*963 ANTENNA__304__CLK
*964 ANTENNA__304__Q
*965 ANTENNA__305__CLK
*966 ANTENNA__306__CLK
*967 ANTENNA__306__Q
*968 ANTENNA__307__CLK
*969 ANTENNA__308__CLK
*970 ANTENNA__308__Q
*971 ANTENNA__309__CLK
*972 ANTENNA__311__CLK
*973 ANTENNA__312__CLK
*974 ANTENNA__312__Q
*975 ANTENNA__313__CLK
*976 ANTENNA__314__CLK
*977 ANTENNA__314__Q
*978 ANTENNA__315__CLK
*979 ANTENNA__316__CLK
*980 ANTENNA__317__CLK
*981 ANTENNA__319__CLK
*982 ANTENNA__320__CLK
*983 ANTENNA__321__CLK
*984 ANTENNA__322__CLK
*985 ANTENNA__323__CLK
*986 ANTENNA__324__CLK
*987 ANTENNA__325__CLK
*988 ANTENNA__327__CLK
*989 ANTENNA__328__CLK
*990 ANTENNA__329__CLK
*991 ANTENNA__330__CLK
*992 ANTENNA__331__CLK
*993 ANTENNA__332__CLK
*994 ANTENNA__333__CLK
*995 ANTENNA__335__CLK
*996 ANTENNA__344__CLK
*997 ANTENNA__345__CLK
*998 ANTENNA__347__CLK
*999 ANTENNA__348__CLK
*1000 ANTENNA__354__CLK
*1001 ANTENNA__354__Q
*1002 ANTENNA__357__CLK
*1003 ANTENNA__358__CLK
*1004 ANTENNA__359__CLK
*1005 ANTENNA__360__CLK
*1006 ANTENNA__369__CLK
*1007 ANTENNA__370__CLK
*1008 ANTENNA__371__CLK
*1009 ANTENNA__372__CLK
*1010 ANTENNA_clkbuf_0_wb_clk_i_A
*1011 ANTENNA_clkbuf_0_wb_clk_i_X
*1012 ANTENNA_clkbuf_3_0__f_wb_clk_i_A
*1013 ANTENNA_clkbuf_3_0__f_wb_clk_i_X
*1014 ANTENNA_clkbuf_3_1__f_wb_clk_i_A
*1015 ANTENNA_clkbuf_3_1__f_wb_clk_i_X
*1016 ANTENNA_clkbuf_3_2__f_wb_clk_i_A
*1017 ANTENNA_clkbuf_3_2__f_wb_clk_i_X
*1018 ANTENNA_clkbuf_3_3__f_wb_clk_i_A
*1019 ANTENNA_clkbuf_3_3__f_wb_clk_i_X
*1020 ANTENNA_clkbuf_3_4__f_wb_clk_i_A
*1021 ANTENNA_clkbuf_3_4__f_wb_clk_i_X
*1022 ANTENNA_clkbuf_3_5__f_wb_clk_i_A
*1023 ANTENNA_clkbuf_3_6__f_wb_clk_i_A
*1024 ANTENNA_clkbuf_3_7__f_wb_clk_i_A
*1025 ANTENNA_clkload0_A
*1026 ANTENNA_clkload1_A
*1027 ANTENNA_clkload2_A
*1028 ANTENNA_clkload3_A
*1029 ANTENNA_clkload4_A
*1030 ANTENNA_fanout103_A
*1031 ANTENNA_fanout103_X
*1032 ANTENNA_fanout104_A
*1033 ANTENNA_fanout104_X
*1034 ANTENNA_fanout105_A
*1035 ANTENNA_fanout105_X
*1036 ANTENNA_fanout106_A
*1037 ANTENNA_fanout106_X
*1038 ANTENNA_fanout107_A
*1039 ANTENNA_fanout107_X
*1040 ANTENNA_fanout108_A
*1041 ANTENNA_fanout108_X
*1042 ANTENNA_fanout109_A
*1043 ANTENNA_fanout109_X
*1044 ANTENNA_fanout110_A
*1045 ANTENNA_fanout110_X
*1046 ANTENNA_fanout111_A
*1047 ANTENNA_fanout111_X
*1048 ANTENNA_fanout112_A
*1049 ANTENNA_fanout112_X
*1050 ANTENNA_fanout113_A
*1051 ANTENNA_fanout113_X
*1052 ANTENNA_fanout114_A
*1053 ANTENNA_fanout114_X
*1054 ANTENNA_fanout115_A
*1055 ANTENNA_fanout115_X
*1056 ANTENNA_fanout116_A
*1057 ANTENNA_fanout116_X
*1058 ANTENNA_fanout117_A
*1059 ANTENNA_fanout117_X
*1060 ANTENNA_fanout118_A
*1061 ANTENNA_fanout118_X
*1062 ANTENNA_fanout119_A
*1063 ANTENNA_fanout119_X
*1064 ANTENNA_fanout120_A
*1065 ANTENNA_fanout120_X
*1066 ANTENNA_fanout121_A
*1067 ANTENNA_fanout121_X
*1068 ANTENNA_fanout122_A
*1069 ANTENNA_fanout122_X
*1070 ANTENNA_hold109_A
*1071 ANTENNA_hold13_A
*1072 ANTENNA_hold153_A
*1073 ANTENNA_hold163_A
*1074 ANTENNA_hold163_X
*1075 ANTENNA_hold168_A
*1076 ANTENNA_hold176_A
*1077 ANTENNA_hold178_A
*1078 ANTENNA_hold17_A
*1079 ANTENNA_hold1_A
*1080 ANTENNA_hold21_A
*1081 ANTENNA_hold25_A
*1082 ANTENNA_hold29_A
*1083 ANTENNA_hold33_A
*1084 ANTENNA_hold39_A
*1085 ANTENNA_hold43_A
*1086 ANTENNA_hold49_A
*1087 ANTENNA_hold57_A
*1088 ANTENNA_hold5_A
*1089 ANTENNA_hold63_A
*1090 ANTENNA_hold67_A
*1091 ANTENNA_hold73_A
*1092 ANTENNA_hold81_A
*1093 ANTENNA_hold87_A
*1094 ANTENNA_hold88_X
*1095 ANTENNA_hold9_A
*1096 ANTENNA_input10_A
*1097 ANTENNA_input12_A
*1098 ANTENNA_input1_A
*1099 ANTENNA_input23_A
*1100 ANTENNA_input2_A
*1101 ANTENNA_input32_A
*1102 ANTENNA_input33_A
*1103 ANTENNA_input34_X
*1104 ANTENNA_input35_A
*1105 ANTENNA_input3_A
*1106 ANTENNA_input4_A
*1107 ANTENNA_input5_A
*1108 ANTENNA_input6_A
*1109 ANTENNA_input7_A
*1110 ANTENNA_input7_X
*1111 ANTENNA_input8_A
*1112 ANTENNA_input9_A
*1113 ANTENNA_output52_A
*1114 ANTENNA_output61_A
*1115 ANTENNA_output75_A
*1116 ANTENNA_output77_A
*1117 ANTENNA_output81_A
*1118 ANTENNA_output89_A
*1119 FILLER_0_109
*1120 FILLER_0_111
*1121 FILLER_0_113
*1122 FILLER_0_125
*1123 FILLER_0_137
*1124 FILLER_0_139
*1125 FILLER_0_141
*1126 FILLER_0_146
*1127 FILLER_0_15
*1128 FILLER_0_158
*1129 FILLER_0_166
*1130 FILLER_0_169
*1131 FILLER_0_177
*1132 FILLER_0_181
*1133 FILLER_0_193
*1134 FILLER_0_195
*1135 FILLER_0_197
*1136 FILLER_0_209
*1137 FILLER_0_221
*1138 FILLER_0_223
*1139 FILLER_0_225
*1140 FILLER_0_237
*1141 FILLER_0_249
*1142 FILLER_0_251
*1143 FILLER_0_253
*1144 FILLER_0_265
*1145 FILLER_0_27
*1146 FILLER_0_273
*1147 FILLER_0_275
*1148 FILLER_0_279
*1149 FILLER_0_281
*1150 FILLER_0_287
*1151 FILLER_0_29
*1152 FILLER_0_297
*1153 FILLER_0_3
*1154 FILLER_0_303
*1155 FILLER_0_307
*1156 FILLER_0_309
*1157 FILLER_0_314
*1158 FILLER_0_318
*1159 FILLER_0_321
*1160 FILLER_0_335
*1161 FILLER_0_337
*1162 FILLER_0_342
*1163 FILLER_0_349
*1164 FILLER_0_363
*1165 FILLER_0_365
*1166 FILLER_0_368
*1167 FILLER_0_376
*1168 FILLER_0_378
*1169 FILLER_0_391
*1170 FILLER_0_393
*1171 FILLER_0_397
*1172 FILLER_0_400
*1173 FILLER_0_405
*1174 FILLER_0_41
*1175 FILLER_0_419
*1176 FILLER_0_421
*1177 FILLER_0_434
*1178 FILLER_0_439
*1179 FILLER_0_441
*1180 FILLER_0_444
*1181 FILLER_0_449
*1182 FILLER_0_462
*1183 FILLER_0_466
*1184 FILLER_0_475
*1185 FILLER_0_477
*1186 FILLER_0_490
*1187 FILLER_0_498
*1188 FILLER_0_503
*1189 FILLER_0_505
*1190 FILLER_0_518
*1191 FILLER_0_522
*1192 FILLER_0_526
*1193 FILLER_0_53
*1194 FILLER_0_530
*1195 FILLER_0_533
*1196 FILLER_0_541
*1197 FILLER_0_545
*1198 FILLER_0_55
*1199 FILLER_0_557
*1200 FILLER_0_559
*1201 FILLER_0_561
*1202 FILLER_0_57
*1203 FILLER_0_573
*1204 FILLER_0_585
*1205 FILLER_0_587
*1206 FILLER_0_589
*1207 FILLER_0_601
*1208 FILLER_0_613
*1209 FILLER_0_615
*1210 FILLER_0_617
*1211 FILLER_0_629
*1212 FILLER_0_641
*1213 FILLER_0_643
*1214 FILLER_0_645
*1215 FILLER_0_657
*1216 FILLER_0_669
*1217 FILLER_0_671
*1218 FILLER_0_673
*1219 FILLER_0_685
*1220 FILLER_0_69
*1221 FILLER_0_697
*1222 FILLER_0_699
*1223 FILLER_0_701
*1224 FILLER_0_713
*1225 FILLER_0_725
*1226 FILLER_0_727
*1227 FILLER_0_729
*1228 FILLER_0_741
*1229 FILLER_0_753
*1230 FILLER_0_755
*1231 FILLER_0_757
*1232 FILLER_0_769
*1233 FILLER_0_781
*1234 FILLER_0_783
*1235 FILLER_0_785
*1236 FILLER_0_797
*1237 FILLER_0_81
*1238 FILLER_0_83
*1239 FILLER_0_85
*1240 FILLER_0_97
*1241 FILLER_100_109
*1242 FILLER_100_121
*1243 FILLER_100_133
*1244 FILLER_100_137
*1245 FILLER_100_139
*1246 FILLER_100_141
*1247 FILLER_100_15
*1248 FILLER_100_153
*1249 FILLER_100_165
*1250 FILLER_100_177
*1251 FILLER_100_189
*1252 FILLER_100_193
*1253 FILLER_100_195
*1254 FILLER_100_197
*1255 FILLER_100_209
*1256 FILLER_100_221
*1257 FILLER_100_233
*1258 FILLER_100_245
*1259 FILLER_100_249
*1260 FILLER_100_251
*1261 FILLER_100_253
*1262 FILLER_100_265
*1263 FILLER_100_27
*1264 FILLER_100_277
*1265 FILLER_100_289
*1266 FILLER_100_29
*1267 FILLER_100_3
*1268 FILLER_100_301
*1269 FILLER_100_305
*1270 FILLER_100_307
*1271 FILLER_100_309
*1272 FILLER_100_321
*1273 FILLER_100_333
*1274 FILLER_100_345
*1275 FILLER_100_357
*1276 FILLER_100_361
*1277 FILLER_100_363
*1278 FILLER_100_365
*1279 FILLER_100_377
*1280 FILLER_100_389
*1281 FILLER_100_401
*1282 FILLER_100_41
*1283 FILLER_100_413
*1284 FILLER_100_417
*1285 FILLER_100_419
*1286 FILLER_100_421
*1287 FILLER_100_433
*1288 FILLER_100_445
*1289 FILLER_100_457
*1290 FILLER_100_469
*1291 FILLER_100_473
*1292 FILLER_100_475
*1293 FILLER_100_477
*1294 FILLER_100_489
*1295 FILLER_100_501
*1296 FILLER_100_513
*1297 FILLER_100_525
*1298 FILLER_100_529
*1299 FILLER_100_53
*1300 FILLER_100_531
*1301 FILLER_100_533
*1302 FILLER_100_545
*1303 FILLER_100_557
*1304 FILLER_100_569
*1305 FILLER_100_581
*1306 FILLER_100_585
*1307 FILLER_100_587
*1308 FILLER_100_589
*1309 FILLER_100_601
*1310 FILLER_100_613
*1311 FILLER_100_625
*1312 FILLER_100_637
*1313 FILLER_100_641
*1314 FILLER_100_643
*1315 FILLER_100_645
*1316 FILLER_100_65
*1317 FILLER_100_657
*1318 FILLER_100_669
*1319 FILLER_100_681
*1320 FILLER_100_693
*1321 FILLER_100_697
*1322 FILLER_100_699
*1323 FILLER_100_701
*1324 FILLER_100_713
*1325 FILLER_100_725
*1326 FILLER_100_737
*1327 FILLER_100_749
*1328 FILLER_100_753
*1329 FILLER_100_755
*1330 FILLER_100_757
*1331 FILLER_100_769
*1332 FILLER_100_77
*1333 FILLER_100_781
*1334 FILLER_100_793
*1335 FILLER_100_797
*1336 FILLER_100_81
*1337 FILLER_100_83
*1338 FILLER_100_85
*1339 FILLER_100_97
*1340 FILLER_101_105
*1341 FILLER_101_109
*1342 FILLER_101_111
*1343 FILLER_101_113
*1344 FILLER_101_125
*1345 FILLER_101_137
*1346 FILLER_101_149
*1347 FILLER_101_15
*1348 FILLER_101_161
*1349 FILLER_101_165
*1350 FILLER_101_167
*1351 FILLER_101_169
*1352 FILLER_101_181
*1353 FILLER_101_193
*1354 FILLER_101_205
*1355 FILLER_101_217
*1356 FILLER_101_221
*1357 FILLER_101_223
*1358 FILLER_101_225
*1359 FILLER_101_237
*1360 FILLER_101_249
*1361 FILLER_101_261
*1362 FILLER_101_27
*1363 FILLER_101_273
*1364 FILLER_101_277
*1365 FILLER_101_279
*1366 FILLER_101_281
*1367 FILLER_101_293
*1368 FILLER_101_3
*1369 FILLER_101_305
*1370 FILLER_101_317
*1371 FILLER_101_329
*1372 FILLER_101_333
*1373 FILLER_101_335
*1374 FILLER_101_337
*1375 FILLER_101_349
*1376 FILLER_101_361
*1377 FILLER_101_373
*1378 FILLER_101_385
*1379 FILLER_101_389
*1380 FILLER_101_39
*1381 FILLER_101_391
*1382 FILLER_101_393
*1383 FILLER_101_405
*1384 FILLER_101_417
*1385 FILLER_101_429
*1386 FILLER_101_441
*1387 FILLER_101_445
*1388 FILLER_101_447
*1389 FILLER_101_449
*1390 FILLER_101_461
*1391 FILLER_101_473
*1392 FILLER_101_485
*1393 FILLER_101_497
*1394 FILLER_101_501
*1395 FILLER_101_503
*1396 FILLER_101_505
*1397 FILLER_101_51
*1398 FILLER_101_517
*1399 FILLER_101_529
*1400 FILLER_101_541
*1401 FILLER_101_55
*1402 FILLER_101_553
*1403 FILLER_101_557
*1404 FILLER_101_559
*1405 FILLER_101_561
*1406 FILLER_101_57
*1407 FILLER_101_573
*1408 FILLER_101_585
*1409 FILLER_101_597
*1410 FILLER_101_609
*1411 FILLER_101_613
*1412 FILLER_101_615
*1413 FILLER_101_617
*1414 FILLER_101_629
*1415 FILLER_101_641
*1416 FILLER_101_653
*1417 FILLER_101_665
*1418 FILLER_101_669
*1419 FILLER_101_671
*1420 FILLER_101_673
*1421 FILLER_101_685
*1422 FILLER_101_69
*1423 FILLER_101_697
*1424 FILLER_101_709
*1425 FILLER_101_721
*1426 FILLER_101_725
*1427 FILLER_101_727
*1428 FILLER_101_729
*1429 FILLER_101_741
*1430 FILLER_101_753
*1431 FILLER_101_765
*1432 FILLER_101_777
*1433 FILLER_101_781
*1434 FILLER_101_783
*1435 FILLER_101_785
*1436 FILLER_101_797
*1437 FILLER_101_81
*1438 FILLER_101_93
*1439 FILLER_102_109
*1440 FILLER_102_121
*1441 FILLER_102_133
*1442 FILLER_102_137
*1443 FILLER_102_139
*1444 FILLER_102_141
*1445 FILLER_102_15
*1446 FILLER_102_153
*1447 FILLER_102_165
*1448 FILLER_102_177
*1449 FILLER_102_189
*1450 FILLER_102_193
*1451 FILLER_102_195
*1452 FILLER_102_197
*1453 FILLER_102_209
*1454 FILLER_102_221
*1455 FILLER_102_233
*1456 FILLER_102_245
*1457 FILLER_102_249
*1458 FILLER_102_251
*1459 FILLER_102_253
*1460 FILLER_102_265
*1461 FILLER_102_27
*1462 FILLER_102_277
*1463 FILLER_102_289
*1464 FILLER_102_29
*1465 FILLER_102_3
*1466 FILLER_102_301
*1467 FILLER_102_305
*1468 FILLER_102_307
*1469 FILLER_102_309
*1470 FILLER_102_321
*1471 FILLER_102_333
*1472 FILLER_102_345
*1473 FILLER_102_357
*1474 FILLER_102_361
*1475 FILLER_102_363
*1476 FILLER_102_365
*1477 FILLER_102_377
*1478 FILLER_102_389
*1479 FILLER_102_401
*1480 FILLER_102_41
*1481 FILLER_102_413
*1482 FILLER_102_417
*1483 FILLER_102_419
*1484 FILLER_102_421
*1485 FILLER_102_433
*1486 FILLER_102_435
*1487 FILLER_102_444
*1488 FILLER_102_448
*1489 FILLER_102_460
*1490 FILLER_102_472
*1491 FILLER_102_477
*1492 FILLER_102_489
*1493 FILLER_102_501
*1494 FILLER_102_513
*1495 FILLER_102_525
*1496 FILLER_102_529
*1497 FILLER_102_53
*1498 FILLER_102_531
*1499 FILLER_102_533
*1500 FILLER_102_545
*1501 FILLER_102_557
*1502 FILLER_102_569
*1503 FILLER_102_581
*1504 FILLER_102_585
*1505 FILLER_102_587
*1506 FILLER_102_589
*1507 FILLER_102_601
*1508 FILLER_102_613
*1509 FILLER_102_625
*1510 FILLER_102_637
*1511 FILLER_102_641
*1512 FILLER_102_643
*1513 FILLER_102_645
*1514 FILLER_102_65
*1515 FILLER_102_657
*1516 FILLER_102_669
*1517 FILLER_102_681
*1518 FILLER_102_693
*1519 FILLER_102_697
*1520 FILLER_102_699
*1521 FILLER_102_701
*1522 FILLER_102_713
*1523 FILLER_102_725
*1524 FILLER_102_737
*1525 FILLER_102_749
*1526 FILLER_102_753
*1527 FILLER_102_755
*1528 FILLER_102_757
*1529 FILLER_102_769
*1530 FILLER_102_77
*1531 FILLER_102_781
*1532 FILLER_102_793
*1533 FILLER_102_797
*1534 FILLER_102_81
*1535 FILLER_102_83
*1536 FILLER_102_85
*1537 FILLER_102_97
*1538 FILLER_103_105
*1539 FILLER_103_109
*1540 FILLER_103_111
*1541 FILLER_103_113
*1542 FILLER_103_125
*1543 FILLER_103_137
*1544 FILLER_103_149
*1545 FILLER_103_15
*1546 FILLER_103_161
*1547 FILLER_103_165
*1548 FILLER_103_167
*1549 FILLER_103_169
*1550 FILLER_103_181
*1551 FILLER_103_193
*1552 FILLER_103_205
*1553 FILLER_103_217
*1554 FILLER_103_221
*1555 FILLER_103_223
*1556 FILLER_103_225
*1557 FILLER_103_237
*1558 FILLER_103_249
*1559 FILLER_103_261
*1560 FILLER_103_27
*1561 FILLER_103_273
*1562 FILLER_103_277
*1563 FILLER_103_279
*1564 FILLER_103_281
*1565 FILLER_103_293
*1566 FILLER_103_3
*1567 FILLER_103_305
*1568 FILLER_103_317
*1569 FILLER_103_329
*1570 FILLER_103_333
*1571 FILLER_103_335
*1572 FILLER_103_337
*1573 FILLER_103_349
*1574 FILLER_103_361
*1575 FILLER_103_373
*1576 FILLER_103_385
*1577 FILLER_103_389
*1578 FILLER_103_39
*1579 FILLER_103_391
*1580 FILLER_103_393
*1581 FILLER_103_405
*1582 FILLER_103_417
*1583 FILLER_103_429
*1584 FILLER_103_441
*1585 FILLER_103_445
*1586 FILLER_103_447
*1587 FILLER_103_449
*1588 FILLER_103_461
*1589 FILLER_103_473
*1590 FILLER_103_485
*1591 FILLER_103_497
*1592 FILLER_103_501
*1593 FILLER_103_503
*1594 FILLER_103_505
*1595 FILLER_103_51
*1596 FILLER_103_517
*1597 FILLER_103_529
*1598 FILLER_103_541
*1599 FILLER_103_55
*1600 FILLER_103_553
*1601 FILLER_103_557
*1602 FILLER_103_559
*1603 FILLER_103_561
*1604 FILLER_103_57
*1605 FILLER_103_573
*1606 FILLER_103_585
*1607 FILLER_103_597
*1608 FILLER_103_609
*1609 FILLER_103_613
*1610 FILLER_103_615
*1611 FILLER_103_617
*1612 FILLER_103_629
*1613 FILLER_103_641
*1614 FILLER_103_653
*1615 FILLER_103_665
*1616 FILLER_103_669
*1617 FILLER_103_671
*1618 FILLER_103_673
*1619 FILLER_103_685
*1620 FILLER_103_69
*1621 FILLER_103_697
*1622 FILLER_103_709
*1623 FILLER_103_721
*1624 FILLER_103_725
*1625 FILLER_103_727