*SPEF "ieee 1481-1999"
*DESIGN "wb_slave_memory_mapped"
*DATE "02:20:49 Thursday March 26, 2026"
*VENDOR "The OpenROAD Project"
*PROGRAM "OpenROAD"
*VERSION "edf00dff99f6c40d67a30c0e22a8191c5d2ed9d6"
*DESIGN_FLOW "NAME_SCOPE LOCAL" "PIN_CAP NONE"
*DIVIDER /
*DELIMITER :
*BUS_DELIMITER []
*T_UNIT 1 NS
*C_UNIT 1 PF
*R_UNIT 1 OHM
*L_UNIT 1 HENRY

*NAME_MAP
*1 mem_raddr[0]
*2 mem_raddr[10]
*3 mem_raddr[11]
*4 mem_raddr[12]
*5 mem_raddr[13]
*6 mem_raddr[14]
*7 mem_raddr[15]
*8 mem_raddr[16]
*9 mem_raddr[17]
*10 mem_raddr[18]
*11 mem_raddr[19]
*12 mem_raddr[1]
*13 mem_raddr[20]
*14 mem_raddr[21]
*15 mem_raddr[22]
*16 mem_raddr[23]
*17 mem_raddr[24]
*18 mem_raddr[25]
*19 mem_raddr[26]
*20 mem_raddr[27]
*21 mem_raddr[28]
*22 mem_raddr[29]
*23 mem_raddr[2]
*24 mem_raddr[30]
*25 mem_raddr[31]
*26 mem_raddr[3]
*27 mem_raddr[4]
*28 mem_raddr[5]
*29 mem_raddr[6]
*30 mem_raddr[7]
*31 mem_raddr[8]
*32 mem_raddr[9]
*33 mem_rdata[0]
*34 mem_rdata[10]
*35 mem_rdata[11]
*36 mem_rdata[12]
*37 mem_rdata[13]
*38 mem_rdata[14]
*39 mem_rdata[15]
*40 mem_rdata[16]
*41 mem_rdata[17]
*42 mem_rdata[18]
*43 mem_rdata[19]
*44 mem_rdata[1]
*45 mem_rdata[20]
*46 mem_rdata[21]
*47 mem_rdata[22]
*48 mem_rdata[23]
*49 mem_rdata[24]
*50 mem_rdata[25]
*51 mem_rdata[26]
*52 mem_rdata[27]
*53 mem_rdata[28]
*54 mem_rdata[29]
*55 mem_rdata[2]
*56 mem_rdata[30]
*57 mem_rdata[31]
*58 mem_rdata[3]
*59 mem_rdata[4]
*60 mem_rdata[5]
*61 mem_rdata[6]
*62 mem_rdata[7]
*63 mem_rdata[8]
*64 mem_rdata[9]
*65 mem_rdy
*66 mem_re
*67 mem_waddr[0]
*68 mem_waddr[10]
*69 mem_waddr[11]
*70 mem_waddr[12]
*71 mem_waddr[13]
*72 mem_waddr[14]
*73 mem_waddr[15]
*74 mem_waddr[16]
*75 mem_waddr[17]
*76 mem_waddr[18]
*77 mem_waddr[19]
*78 mem_waddr[1]
*79 mem_waddr[20]
*80 mem_waddr[21]
*81 mem_waddr[22]
*82 mem_waddr[23]
*83 mem_waddr[24]
*84 mem_waddr[25]
*85 mem_waddr[26]
*86 mem_waddr[27]
*87 mem_waddr[28]
*88 mem_waddr[29]
*89 mem_waddr[2]
*90 mem_waddr[30]
*91 mem_waddr[31]
*92 mem_waddr[3]
*93 mem_waddr[4]
*94 mem_waddr[5]
*95 mem_waddr[6]
*96 mem_waddr[7]
*97 mem_waddr[8]
*98 mem_waddr[9]
*99 mem_wdata[0]
*100 mem_wdata[10]
*101 mem_wdata[11]
*102 mem_wdata[12]
*103 mem_wdata[13]
*104 mem_wdata[14]
*105 mem_wdata[15]
*106 mem_wdata[16]
*107 mem_wdata[17]
*108 mem_wdata[18]
*109 mem_wdata[19]
*110 mem_wdata[1]
*111 mem_wdata[20]
*112 mem_wdata[21]
*113 mem_wdata[22]
*114 mem_wdata[23]
*115 mem_wdata[24]
*116 mem_wdata[25]
*117 mem_wdata[26]
*118 mem_wdata[27]
*119 mem_wdata[28]
*120 mem_wdata[29]
*121 mem_wdata[2]
*122 mem_wdata[30]
*123 mem_wdata[31]
*124 mem_wdata[3]
*125 mem_wdata[4]
*126 mem_wdata[5]
*127 mem_wdata[6]
*128 mem_wdata[7]
*129 mem_wdata[8]
*130 mem_wdata[9]
*131 mem_we
*132 mem_wmask[0]
*133 mem_wmask[1]
*134 mem_wmask[2]
*135 mem_wmask[3]
*136 mem_wr_data_ack
*137 up_soft_reset
*140 wb_ack_o
*141 wb_adr_i[0]
*142 wb_adr_i[10]
*143 wb_adr_i[11]
*144 wb_adr_i[12]
*145 wb_adr_i[13]
*146 wb_adr_i[14]
*147 wb_adr_i[15]
*148 wb_adr_i[16]
*149 wb_adr_i[17]
*150 wb_adr_i[18]
*151 wb_adr_i[19]
*152 wb_adr_i[1]
*153 wb_adr_i[20]
*154 wb_adr_i[21]
*155 wb_adr_i[22]
*156 wb_adr_i[23]
*157 wb_adr_i[24]
*158 wb_adr_i[25]
*159 wb_adr_i[26]
*160 wb_adr_i[27]
*161 wb_adr_i[28]
*162 wb_adr_i[29]
*163 wb_adr_i[2]
*164 wb_adr_i[30]
*165 wb_adr_i[31]
*166 wb_adr_i[3]
*167 wb_adr_i[4]
*168 wb_adr_i[5]
*169 wb_adr_i[6]
*170 wb_adr_i[7]
*171 wb_adr_i[8]
*172 wb_adr_i[9]
*173 wb_clk_i
*174 wb_cyc_i
*175 wb_dat_i[0]
*176 wb_dat_i[10]
*177 wb_dat_i[11]
*178 wb_dat_i[12]
*179 wb_dat_i[13]
*180 wb_dat_i[14]
*181 wb_dat_i[15]
*182 wb_dat_i[16]
*183 wb_dat_i[17]
*184 wb_dat_i[18]
*185 wb_dat_i[19]
*186 wb_dat_i[1]
*187 wb_dat_i[20]
*188 wb_dat_i[21]
*189 wb_dat_i[22]
*190 wb_dat_i[23]
*191 wb_dat_i[24]
*192 wb_dat_i[25]
*193 wb_dat_i[26]
*194 wb_dat_i[27]
*195 wb_dat_i[28]
*196 wb_dat_i[29]
*197 wb_dat_i[2]
*198 wb_dat_i[30]
*199 wb_dat_i[31]
*200 wb_dat_i[3]
*201 wb_dat_i[4]
*202 wb_dat_i[5]
*203 wb_dat_i[6]
*204 wb_dat_i[7]
*205 wb_dat_i[8]
*206 wb_dat_i[9]
*207 wb_dat_o[0]
*208 wb_dat_o[10]
*209 wb_dat_o[11]
*210 wb_dat_o[12]
*211 wb_dat_o[13]
*212 wb_dat_o[14]
*213 wb_dat_o[15]
*214 wb_dat_o[16]
*215 wb_dat_o[17]
*216 wb_dat_o[18]
*217 wb_dat_o[19]
*218 wb_dat_o[1]
*219 wb_dat_o[20]
*220 wb_dat_o[21]
*221 wb_dat_o[22]
*222 wb_dat_o[23]
*223 wb_dat_o[24]
*224 wb_dat_o[25]
*225 wb_dat_o[26]
*226 wb_dat_o[27]
*227 wb_dat_o[28]
*228 wb_dat_o[29]
*229 wb_dat_o[2]
*230 wb_dat_o[30]
*231 wb_dat_o[31]
*232 wb_dat_o[3]
*233 wb_dat_o[4]
*234 wb_dat_o[5]
*235 wb_dat_o[6]
*236 wb_dat_o[7]
*237 wb_dat_o[8]
*238 wb_dat_o[9]
*239 wb_rst_i
*240 wb_sel_i[0]
*241 wb_sel_i[1]
*242 wb_sel_i[2]
*243 wb_sel_i[3]
*244 wb_stb_i
*245 wb_we_i
*246 _000_
*247 _001_
*248 _002_
*249 _003_
*250 _004_
*251 _005_
*252 _006_
*253 _007_
*254 _008_
*255 _009_
*256 _010_
*257 _011_
*258 _012_
*259 _013_
*260 _014_
*261 _015_
*262 _016_
*263 _017_
*264 _018_
*265 _019_
*266 _020_
*267 _021_
*268 _022_
*269 _023_
*270 _024_
*271 _025_
*272 _026_
*273 _027_
*274 _028_
*275 _029_
*276 _030_
*277 _031_
*278 _032_
*279 _033_
*280 _034_
*281 _035_
*282 _036_
*283 _037_
*284 _038_
*285 _039_
*286 _040_
*287 _041_
*288 _042_
*289 _043_
*290 _044_
*291 _045_
*292 _046_
*293 _047_
*294 _048_
*295 _049_
*296 _050_
*297 _051_
*298 _052_
*299 _053_
*300 _054_
*301 _055_
*302 _056_
*303 _057_
*304 _058_
*305 _059_
*306 _060_
*307 _061_
*308 _062_
*309 _063_
*310 _064_
*311 _065_
*312 _066_
*313 _067_
*314 _068_
*315 _069_
*316 _070_
*317 _071_
*318 _072_
*319 _073_
*320 _074_
*321 _075_
*322 _076_
*323 _077_
*324 _078_
*325 _079_
*326 _080_
*327 _081_
*328 _082_
*329 _083_
*330 _084_
*331 _085_
*332 _086_
*333 _087_
*334 _088_
*335 _089_
*336 _090_
*337 _091_
*338 _092_
*339 _093_
*340 _094_
*341 _095_
*342 _096_
*343 _097_
*344 _098_
*345 _099_
*346 _100_
*347 _101_
*348 _102_
*349 _103_
*350 _104_
*351 _105_
*352 _106_
*353 _107_
*354 _108_
*355 _109_
*356 _110_
*357 _111_
*358 _112_
*359 _113_
*360 _114_
*361 _115_
*362 _116_
*363 _117_
*364 _118_
*365 _119_
*366 _120_
*367 _121_
*368 _122_
*369 _123_
*370 _124_
*371 _125_
*372 _126_
*373 _127_
*374 _128_
*375 _129_
*376 _130_
*377 _131_
*378 _132_
*379 _133_
*380 _134_
*381 _135_
*382 _136_
*383 _137_
*384 _138_
*385 _139_
*386 _140_
*387 _141_
*388 _142_
*389 _143_
*390 _144_
*391 _145_
*392 _146_
*393 _147_
*394 _148_
*395 _149_
*396 _150_
*397 _151_
*398 _152_
*399 _153_
*400 _154_
*401 _155_
*402 _156_
*403 _157_
*404 _158_
*405 _159_
*406 _160_
*407 _161_
*408 _162_
*409 _163_
*410 _164_
*411 _165_
*412 _166_
*413 _167_
*414 _168_
*415 _169_
*416 _170_
*417 _171_
*418 _172_
*419 _173_
*420 _174_
*421 _175_
*422 _176_
*423 _177_
*424 _178_
*425 _179_
*426 _180_
*427 _181_
*428 _182_
*429 _183_
*430 _184_
*431 _185_
*432 _186_
*433 _187_
*434 _188_
*435 _189_
*436 _190_
*437 _191_
*438 _192_
*439 _193_
*440 _194_
*441 _195_
*442 _196_
*443 _197_
*444 _198_
*445 _199_
*446 _200_
*447 _201_
*448 _202_
*449 _203_
*450 _204_
*451 _205_
*452 _206_
*453 _207_
*454 _208_
*455 _209_
*456 _210_
*457 _211_
*458 _212_
*459 _213_
*460 _214_
*461 _215_
*462 _216_
*463 _217_
*464 _218_
*465 _219_
*466 _220_
*467 _221_
*468 _222_
*469 _223_
*470 _224_
*471 _225_
*472 _226_
*473 _227_
*474 _228_
*475 _229_
*476 _230_
*477 _231_
*478 _232_
*479 _233_
*480 _234_
*481 _235_
*482 _236_
*483 _237_
*484 _238_
*485 _239_
*486 _240_
*487 _241_
*488 _242_
*489 _243_
*490 _244_
*491 _245_
*492 _246_
*493 _247_
*494 _248_
*495 _249_
*496 _250_
*497 _251_
*498 _252_
*499 _253_
*500 _254_
*501 _255_
*502 _256_
*503 _257_
*504 _258_
*505 _259_
*506 _260_
*507 _261_
*508 _262_
*509 _263_
*510 _264_
*511 _265_
*512 _266_
*513 _267_
*514 _268_
*515 _269_
*516 _270_
*517 _271_
*518 _272_
*519 _273_
*520 _274_
*521 _275_
*522 clknet_0_wb_clk_i
*523 clknet_4_0_0_wb_clk_i
*524 clknet_4_10_0_wb_clk_i
*525 clknet_4_11_0_wb_clk_i
*526 clknet_4_12_0_wb_clk_i
*527 clknet_4_13_0_wb_clk_i
*528 clknet_4_14_0_wb_clk_i
*529 clknet_4_15_0_wb_clk_i
*530 clknet_4_1_0_wb_clk_i
*531 clknet_4_2_0_wb_clk_i
*532 clknet_4_3_0_wb_clk_i
*533 clknet_4_4_0_wb_clk_i
*534 clknet_4_5_0_wb_clk_i
*535 clknet_4_6_0_wb_clk_i
*536 clknet_4_7_0_wb_clk_i
*537 clknet_4_8_0_wb_clk_i
*538 clknet_4_9_0_wb_clk_i
*539 net1
*540 net10
*541 net100
*542 net101
*543 net102
*544 net103
*545 net104
*546 net105
*547 net106
*548 net107
*549 net108
*550 net109
*551 net11
*552 net110
*553 net111
*554 net112
*555 net113
*556 net114
*557 net115
*558 net116
*559 net117
*560 net118
*561 net119
*562 net12
*563 net120
*564 net121
*565 net122
*566 net123
*567 net124
*568 net125
*569 net126
*570 net127
*571 net128
*572 net129
*573 net13
*574 net130
*575 net131
*576 net132
*577 net133
*578 net134
*579 net135
*580 net136
*581 net137
*582 net138
*583 net139
*584 net14
*585 net140
*586 net141
*587 net142
*588 net143
*589 net144
*590 net145
*591 net146
*592 net147
*593 net148
*594 net149
*595 net15
*596 net150
*597 net151
*598 net152
*599 net153
*600 net154
*601 net155
*602 net156
*603 net157
*604 net158
*605 net159
*606 net16
*607 net160
*608 net161
*609 net162
*610 net163
*611 net164
*612 net165
*613 net166
*614 net167
*615 net168
*616 net169
*617 net17
*618 net170
*619 net171
*620 net172
*621 net173
*622 net174
*623 net175
*624 net176
*625 net177
*626 net178
*627 net179
*628 net18
*629 net180
*630 net181
*631 net182
*632 net183
*633 net184
*634 net185
*635 net186
*636 net187
*637 net188
*638 net189
*639 net19
*640 net190
*641 net191
*642 net192
*643 net193
*644 net194
*645 net195
*646 net196
*647 net197
*648 net198
*649 net199
*650 net2
*651 net20
*652 net200
*653 net201
*654 net202
*655 net203
*656 net204
*657 net205
*658 net206
*659 net207
*660 net208
*661 net209
*662 net21
*663 net210
*664 net211
*665 net212
*666 net213
*667 net214
*668 net215
*669 net216
*670 net217
*671 net218
*672 net219
*673 net22
*674 net220
*675 net221
*676 net222
*677 net223
*678 net224
*679 net225
*680 net226
*681 net227
*682 net228
*683 net229
*684 net23
*685 net230
*686 net231
*687 net232
*688 net233
*689 net234
*690 net235
*691 net236
*692 net237
*693 net238
*694 net239
*695 net24
*696 net240
*697 net241
*698 net242
*699 net243
*700 net244
*701 net245
*702 net246
*703 net247
*704 net248
*705 net249
*706 net25
*707 net250
*708 net251
*709 net252
*710 net253
*711 net254
*712 net255
*713 net256
*714 net257
*715 net258
*716 net259
*717 net26
*718 net260
*719 net261
*720 net262
*721 net263
*722 net264
*723 net265
*724 net266
*725 net267
*726 net268
*727 net269
*728 net27
*729 net270
*730 net271
*731 net272
*732 net273
*733 net274
*734 net275
*735 net276
*736 net277
*737 net278
*738 net279
*739 net28
*740 net280
*741 net281
*742 net282
*743 net283
*744 net284
*745 net285
*746 net286
*747 net287
*748 net288
*749 net289
*750 net29
*751 net290
*752 net291
*753 net292
*754 net293
*755 net294
*756 net295
*757 net296
*758 net297
*759 net298
*760 net299
*761 net3
*762 net30
*763 net300
*764 net301
*765 net302
*766 net303
*767 net304
*768 net305
*769 net306
*770 net307
*771 net308
*772 net309
*773 net31
*774 net310
*775 net311
*776 net312
*777 net313
*778 net314
*779 net315
*780 net316
*781 net317
*782 net318
*783 net319
*784 net32
*785 net320
*786 net321
*787 net322
*788 net323
*789 net324
*790 net325
*791 net326
*792 net327
*793 net328
*794 net329
*795 net33
*796 net330
*797 net331
*798 net332
*799 net333
*800 net334
*801 net335
*802 net336
*803 net337
*804 net338
*805 net339
*806 net34
*807 net340
*808 net341
*809 net342
*810 net343
*811 net344
*812 net345
*813 net346
*814 net347
*815 net348
*816 net349
*817 net35
*818 net350
*819 net351
*820 net352
*821 net353
*822 net354
*823 net355
*824 net356
*825 net357
*826 net358
*827 net359
*828 net36
*829 net360
*830 net361
*831 net362
*832 net363
*833 net364
*834 net365
*835 net366
*836 net367
*837 net368
*838 net369
*839 net37
*840 net370
*841 net371
*842 net372
*843 net373
*844 net374
*845 net375
*846 net376
*847 net377
*848 net378
*849 net379
*850 net38
*851 net380
*852 net381
*853 net382
*854 net383
*855 net384
*856 net385
*857 net386
*858 net387
*859 net388
*860 net389
*861 net39
*862 net390
*863 net391
*864 net392
*865 net393
*866 net394
*867 net395
*868 net396
*869 net397
*870 net398
*871 net399
*872 net4
*873 net40
*874 net400
*875 net401
*876 net402
*877 net403
*878 net404
*879 net405
*880 net406
*881 net407
*882 net408
*883 net409
*884 net41
*885 net410
*886 net411
*887 net412
*888 net413
*889 net414
*890 net415
*891 net416
*892 net417
*893 net418
*894 net419
*895 net42
*896 net420
*897 net421
*898 net422
*899 net423
*900 net424
*901 net425
*902 net426
*903 net427
*904 net428
*905 net429
*906 net43
*907 net430
*908 net431
*909 net432
*910 net433
*911 net434
*912 net435
*913 net436
*914 net437
*915 net438
*916 net439
*917 net44
*918 net440
*919 net441
*920 net442
*921 net443
*922 net444
*923 net445
*924 net446
*925 net447
*926 net448
*927 net449
*928 net45
*929 net450
*930 net451
*931 net452
*932 net453
*933 net454
*934 net455
*935 net456
*936 net457
*937 net458
*938 net459
*939 net46
*940 net460
*941 net461
*942 net462
*943 net463
*944 net464
*945 net465
*946 net466
*947 net467
*948 net468
*949 net469
*950 net47
*951 net470
*952 net471
*953 net472
*954 net473
*955 net474
*956 net475
*957 net476
*958 net477
*959 net478
*960 net479
*961 net48
*962 net480
*963 net481
*964 net482
*965 net483
*966 net484
*967 net485
*968 net486
*969 net487
*970 net488
*971 net489
*972 net49
*973 net490
*974 net491
*975 net492
*976 net493
*977 net494
*978 net495
*979 net496
*980 net497
*981 net498
*982 net499
*983 net5
*984 net50
*985 net500
*986 net501
*987 net502
*988 net503
*989 net504
*990 net505
*991 net506
*992 net507
*993 net508
*994 net509
*995 net51
*996 net510
*997 net511
*998 net512
*999 net513
*1000 net514
*1001 net515
*1002 net516
*1003 net517
*1004 net518
*1005 net519
*1006 net52
*1007 net520
*1008 net521
*1009 net522
*1010 net523
*1011 net524
*1012 net525
*1013 net526
*1014 net527
*1015 net528
*1016 net529
*1017 net53
*1018 net530
*1019 net531
*1020 net532
*1021 net533
*1022 net534
*1023 net535
*1024 net536
*1025 net537
*1026 net538
*1027 net539
*1028 net54
*1029 net540
*1030 net541
*1031 net542
*1032 net543
*1033 net544
*1034 net545
*1035 net546
*1036 net547
*1037 net548
*1038 net549
*1039 net55
*1040 net550
*1041 net551
*1042 net552
*1043 net553
*1044 net554
*1045 net555
*1046 net556
*1047 net557
*1048 net558
*1049 net559
*1050 net56
*1051 net560
*1052 net561
*1053 net562
*1054 net563
*1055 net564
*1056 net565
*1057 net566
*1058 net567
*1059 net568
*1060 net569
*1061 net57
*1062 net570
*1063 net571
*1064 net572
*1065 net573
*1066 net574
*1067 net575
*1068 net576
*1069 net577
*1070 net578
*1071 net579
*1072 net58
*1073 net580
*1074 net581
*1075 net582
*1076 net583
*1077 net584
*1078 net585
*1079 net586
*1080 net587
*1081 net588
*1082 net589
*1083 net59
*1084 net590
*1085 net6
*1086 net60
*1087 net61
*1088 net62
*1089 net63
*1090 net64
*1091 net65
*1092 net66
*1093 net67
*1094 net68
*1095 net69
*1096 net7
*1097 net70
*1098 net71
*1099 net72
*1100 net73
*1101 net74
*1102 net75
*1103 net76
*1104 net77
*1105 net78
*1106 net79
*1107 net8
*1108 net80
*1109 net81
*1110 net82
*1111 net83
*1112 net84
*1113 net85
*1114 net86
*1115 net87
*1116 net88
*1117 net89
*1118 net9
*1119 net90
*1120 net91
*1121 net92
*1122 net93
*1123 net94
*1124 net95
*1125 net96
*1126 net97
*1127 net98
*1128 net99
*1129 rd_pending
*1130 wr_pending
*1131 ANTENNA__276__A2
*1132 ANTENNA__276__B1
*1133 ANTENNA__277__B
*1134 ANTENNA__278__A2
*1135 ANTENNA__278__B1
*1136 ANTENNA__279__B
*1137 ANTENNA__280__A2
*1138 ANTENNA__280__B1
*1139 ANTENNA__281__B
*1140 ANTENNA__282__A2
*1141 ANTENNA__282__B1
*1142 ANTENNA__283__B
*1143 ANTENNA__284__A2
*1144 ANTENNA__284__B1
*1145 ANTENNA__285__B
*1146 ANTENNA__286__B1
*1147 ANTENNA__287__B
*1148 ANTENNA__288__A2
*1149 ANTENNA__288__B1
*1150 ANTENNA__289__B
*1151 ANTENNA__290__B1
*1152 ANTENNA__291__B
*1153 ANTENNA__292__A2
*1154 ANTENNA__292__B1
*1155 ANTENNA__293__B
*1156 ANTENNA__294__A2
*1157 ANTENNA__294__B1
*1158 ANTENNA__295__B
*1159 ANTENNA__296__A2
*1160 ANTENNA__296__B1
*1161 ANTENNA__297__B
*1162 ANTENNA__298__B1
*1163 ANTENNA__299__B
*1164 ANTENNA__300__B1
*1165 ANTENNA__301__B
*1166 ANTENNA__302__A2
*1167 ANTENNA__302__B1
*1168 ANTENNA__303__B
*1169 ANTENNA__304__A2
*1170 ANTENNA__304__B1
*1171 ANTENNA__305__B
*1172 ANTENNA__306__A2
*1173 ANTENNA__306__B1
*1174 ANTENNA__307__B
*1175 ANTENNA__308__B1
*1176 ANTENNA__309__B
*1177 ANTENNA__310__B1
*1178 ANTENNA__311__B
*1179 ANTENNA__312__A2
*1180 ANTENNA__312__B1
*1181 ANTENNA__313__B
*1182 ANTENNA__314__A2
*1183 ANTENNA__314__B1
*1184 ANTENNA__315__B
*1185 ANTENNA__316__A2
*1186 ANTENNA__316__B1
*1187 ANTENNA__317__B
*1188 ANTENNA__318__A2
*1189 ANTENNA__318__B1
*1190 ANTENNA__319__B
*1191 ANTENNA__320__A2
*1192 ANTENNA__320__B1
*1193 ANTENNA__321__B
*1194 ANTENNA__322__A2
*1195 ANTENNA__322__B1
*1196 ANTENNA__323__B
*1197 ANTENNA__324__A2
*1198 ANTENNA__324__B1
*1199 ANTENNA__325__B
*1200 ANTENNA__326__A2
*1201 ANTENNA__326__B1
*1202 ANTENNA__327__B
*1203 ANTENNA__328__A2
*1204 ANTENNA__328__B1
*1205 ANTENNA__329__B
*1206 ANTENNA__330__A2
*1207 ANTENNA__330__B1
*1208 ANTENNA__331__B
*1209 ANTENNA__332__A2
*1210 ANTENNA__332__B1
*1211 ANTENNA__333__B
*1212 ANTENNA__334__A2
*1213 ANTENNA__334__B1
*1214 ANTENNA__335__B
*1215 ANTENNA__336__A2
*1216 ANTENNA__336__B1
*1217 ANTENNA__337__B
*1218 ANTENNA__338__A2
*1219 ANTENNA__338__B1
*1220 ANTENNA__339__B
*1221 ANTENNA__340__A2
*1222 ANTENNA__340__B1
*1223 ANTENNA__341__A
*1224 ANTENNA__341__B
*1225 ANTENNA__342__A2
*1226 ANTENNA__342__B1
*1227 ANTENNA__343__B
*1228 ANTENNA__344__A2
*1229 ANTENNA__344__B1
*1230 ANTENNA__345__B
*1231 ANTENNA__346__A2
*1232 ANTENNA__346__B1
*1233 ANTENNA__347__B
*1234 ANTENNA__348__A1
*1235 ANTENNA__348__A2
*1236 ANTENNA__348__B1
*1237 ANTENNA__349__B
*1238 ANTENNA__350__A2
*1239 ANTENNA__350__B1
*1240 ANTENNA__351__B
*1241 ANTENNA__352__A2
*1242 ANTENNA__352__B1
*1243 ANTENNA__353__B
*1244 ANTENNA__354__A1
*1245 ANTENNA__354__A2
*1246 ANTENNA__354__B1
*1247 ANTENNA__355__B
*1248 ANTENNA__356__A2
*1249 ANTENNA__356__B1
*1250 ANTENNA__357__B
*1251 ANTENNA__358__A2
*1252 ANTENNA__358__B1
*1253 ANTENNA__359__B
*1254 ANTENNA__360__A2
*1255 ANTENNA__360__B1
*1256 ANTENNA__361__B
*1257 ANTENNA__362__A2
*1258 ANTENNA__362__B1
*1259 ANTENNA__363__B
*1260 ANTENNA__364__A2
*1261 ANTENNA__364__B1
*1262 ANTENNA__365__B
*1263 ANTENNA__366__A2
*1264 ANTENNA__366__B1
*1265 ANTENNA__367__B
*1266 ANTENNA__368__A2
*1267 ANTENNA__368__B1
*1268 ANTENNA__369__B
*1269 ANTENNA__370__A2
*1270 ANTENNA__370__B1
*1271 ANTENNA__371__B
*1272 ANTENNA__372__A1
*1273 ANTENNA__372__B1
*1274 ANTENNA__373__B
*1275 ANTENNA__374__A2
*1276 ANTENNA__374__B1
*1277 ANTENNA__375__B
*1278 ANTENNA__376__A2
*1279 ANTENNA__376__B1
*1280 ANTENNA__377__B
*1281 ANTENNA__378__A2
*1282 ANTENNA__378__B1
*1283 ANTENNA__379__B
*1284 ANTENNA__380__A2
*1285 ANTENNA__380__B1
*1286 ANTENNA__381__B
*1287 ANTENNA__382__A2
*1288 ANTENNA__382__B1
*1289 ANTENNA__383__B
*1290 ANTENNA__384__B1
*1291 ANTENNA__385__B
*1292 ANTENNA__386__A2
*1293 ANTENNA__386__C1
*1294 ANTENNA__387__B
*1295 ANTENNA__388__A2
*1296 ANTENNA__388__C1
*1297 ANTENNA__389__B
*1298 ANTENNA__390__A2
*1299 ANTENNA__390__C1
*1300 ANTENNA__391__B
*1301 ANTENNA__392__A2
*1302 ANTENNA__392__C1
*1303 ANTENNA__393__B
*1304 ANTENNA__394__A2
*1305 ANTENNA__394__C1
*1306 ANTENNA__395__B
*1307 ANTENNA__396__A2
*1308 ANTENNA__396__C1
*1309 ANTENNA__397__B
*1310 ANTENNA__398__A2
*1311 ANTENNA__398__C1
*1312 ANTENNA__399__B
*1313 ANTENNA__400__A2
*1314 ANTENNA__400__C1
*1315 ANTENNA__401__B
*1316 ANTENNA__402__A2
*1317 ANTENNA__402__C1
*1318 ANTENNA__403__B
*1319 ANTENNA__404__A2
*1320 ANTENNA__404__C1
*1321 ANTENNA__405__B
*1322 ANTENNA__406__A2
*1323 ANTENNA__406__C1
*1324 ANTENNA__407__B
*1325 ANTENNA__408__A2
*1326 ANTENNA__408__C1
*1327 ANTENNA__409__B
*1328 ANTENNA__410__A2
*1329 ANTENNA__410__C1
*1330 ANTENNA__411__B
*1331 ANTENNA__412__A1
*1332 ANTENNA__412__A2
*1333 ANTENNA__412__C1
*1334 ANTENNA__413__B
*1335 ANTENNA__414__A2
*1336 ANTENNA__414__C1
*1337 ANTENNA__415__B
*1338 ANTENNA__416__A2
*1339 ANTENNA__416__C1
*1340 ANTENNA__417__B
*1341 ANTENNA__418__A1
*1342 ANTENNA__418__A2
*1343 ANTENNA__418__C1
*1344 ANTENNA__419__B
*1345 ANTENNA__420__A2
*1346 ANTENNA__420__C1
*1347 ANTENNA__421__B
*1348 ANTENNA__422__A2
*1349 ANTENNA__422__C1
*1350 ANTENNA__423__B
*1351 ANTENNA__424__A2
*1352 ANTENNA__424__C1
*1353 ANTENNA__425__B
*1354 ANTENNA__426__A2
*1355 ANTENNA__426__C1
*1356 ANTENNA__427__B
*1357 ANTENNA__428__A2
*1358 ANTENNA__428__C1
*1359 ANTENNA__429__B
*1360 ANTENNA__430__A2
*1361 ANTENNA__430__C1
*1362 ANTENNA__431__B
*1363 ANTENNA__432__A2
*1364 ANTENNA__432__C1
*1365 ANTENNA__433__B
*1366 ANTENNA__434__A2
*1367 ANTENNA__434__C1
*1368 ANTENNA__435__B
*1369 ANTENNA__436__A1
*1370 ANTENNA__436__A2
*1371 ANTENNA__436__C1
*1372 ANTENNA__437__B
*1373 ANTENNA__438__A2
*1374 ANTENNA__438__C1
*1375 ANTENNA__439__B
*1376 ANTENNA__440__A2
*1377 ANTENNA__440__C1
*1378 ANTENNA__441__B
*1379 ANTENNA__442__A2
*1380 ANTENNA__442__C1
*1381 ANTENNA__443__B
*1382 ANTENNA__444__A2
*1383 ANTENNA__444__C1
*1384 ANTENNA__445__B
*1385 ANTENNA__446__A2
*1386 ANTENNA__446__C1
*1387 ANTENNA__447__B
*1388 ANTENNA__448__A2
*1389 ANTENNA__448__C1
*1390 ANTENNA__449__A1
*1391 ANTENNA__449__A2
*1392 ANTENNA__450__A2
*1393 ANTENNA__450__C1
*1394 ANTENNA__451__A1
*1395 ANTENNA__451__A2
*1396 ANTENNA__452__A2
*1397 ANTENNA__452__C1
*1398 ANTENNA__453__A1
*1399 ANTENNA__454__A2
*1400 ANTENNA__454__C1
*1401 ANTENNA__455__A1
*1402 ANTENNA__455__A2
*1403 ANTENNA__456__A2
*1404 ANTENNA__456__C1
*1405 ANTENNA__457__A1
*1406 ANTENNA__458__A2
*1407 ANTENNA__458__C1
*1408 ANTENNA__459__A1
*1409 ANTENNA__459__A2
*1410 ANTENNA__460__A2
*1411 ANTENNA__460__C1
*1412 ANTENNA__461__A1
*1413 ANTENNA__461__A2
*1414 ANTENNA__462__A2
*1415 ANTENNA__462__C1
*1416 ANTENNA__463__A1
*1417 ANTENNA__464__A2
*1418 ANTENNA__464__C1
*1419 ANTENNA__465__A1
*1420 ANTENNA__465__A2
*1421 ANTENNA__466__A2
*1422 ANTENNA__466__C1
*1423 ANTENNA__467__A1
*1424 ANTENNA__468__A2
*1425 ANTENNA__468__C1
*1426 ANTENNA__469__A1
*1427 ANTENNA__469__A2
*1428 ANTENNA__470__A2
*1429 ANTENNA__470__C1
*1430 ANTENNA__471__A1
*1431 ANTENNA__471__A2
*1432 ANTENNA__472__A2
*1433 ANTENNA__472__C1
*1434 ANTENNA__473__A1
*1435 ANTENNA__473__A2
*1436 ANTENNA__474__A2
*1437 ANTENNA__474__C1
*1438 ANTENNA__475__A1
*1439 ANTENNA__476__A2
*1440 ANTENNA__476__C1
*1441 ANTENNA__477__A1
*1442 ANTENNA__477__A2
*1443 ANTENNA__478__A1
*1444 ANTENNA__478__A2
*1445 ANTENNA__478__C1
*1446 ANTENNA__479__A1
*1447 ANTENNA__480__A1
*1448 ANTENNA__480__A2
*1449 ANTENNA__480__C1
*1450 ANTENNA__481__A1
*1451 ANTENNA__482__A2
*1452 ANTENNA__482__C1
*1453 ANTENNA__483__A1
*1454 ANTENNA__483__A2
*1455 ANTENNA__484__A2
*1456 ANTENNA__484__C1
*1457 ANTENNA__485__A1
*1458 ANTENNA__485__A2
*1459 ANTENNA__486__A2
*1460 ANTENNA__486__C1
*1461 ANTENNA__487__A1
*1462 ANTENNA__487__A2
*1463 ANTENNA__488__A2
*1464 ANTENNA__488__C1
*1465 ANTENNA__489__A1
*1466 ANTENNA__490__A2
*1467 ANTENNA__490__C1
*1468 ANTENNA__491__A1
*1469 ANTENNA__491__A2
*1470 ANTENNA__492__A2
*1471 ANTENNA__492__C1
*1472 ANTENNA__493__A1
*1473 ANTENNA__493__A2
*1474 ANTENNA__494__A2
*1475 ANTENNA__494__C1
*1476 ANTENNA__495__A1
*1477 ANTENNA__495__A2
*1478 ANTENNA__496__A2
*1479 ANTENNA__496__C1
*1480 ANTENNA__497__A1
*1481 ANTENNA__497__A2
*1482 ANTENNA__498__A2
*1483 ANTENNA__498__C1
*1484 ANTENNA__499__A1
*1485 ANTENNA__499__A2
*1486 ANTENNA__500__A2
*1487 ANTENNA__500__C1
*1488 ANTENNA__501__A1
*1489 ANTENNA__501__A2
*1490 ANTENNA__502__A1
*1491 ANTENNA__502__A2
*1492 ANTENNA__502__C1
*1493 ANTENNA__503__A1
*1494 ANTENNA__503__A2
*1495 ANTENNA__504__A2
*1496 ANTENNA__504__C1
*1497 ANTENNA__505__A1
*1498 ANTENNA__505__A2
*1499 ANTENNA__506__A2
*1500 ANTENNA__506__C1
*1501 ANTENNA__507__A1
*1502 ANTENNA__508__A2
*1503 ANTENNA__508__C1
*1504 ANTENNA__509__A1
*1505 ANTENNA__509__A2
*1506 ANTENNA__510__A2
*1507 ANTENNA__510__C1
*1508 ANTENNA__511__A1
*1509 ANTENNA__511__A2
*1510 ANTENNA__512__A2
*1511 ANTENNA__512__C1
*1512 ANTENNA__513__B
*1513 ANTENNA__513__C
*1514 ANTENNA__514__A2
*1515 ANTENNA__514__B1
*1516 ANTENNA__514__C1
*1517 ANTENNA__515__A2
*1518 ANTENNA__515__B1
*1519 ANTENNA__516__X
*1520 ANTENNA__518__Y
*1521 ANTENNA__519__B
*1522 ANTENNA__519__C
*1523 ANTENNA__521__X
*1524 ANTENNA__522__A
*1525 ANTENNA__522__B
*1526 ANTENNA__522__Y
*1527 ANTENNA__523__B
*1528 ANTENNA__524__A1
*1529 ANTENNA__524__B1_N
*1530 ANTENNA__525__B
*1531 ANTENNA__526__A2
*1532 ANTENNA__526__B1
*1533 ANTENNA__527__B
*1534 ANTENNA__528__A2
*1535 ANTENNA__528__B1
*1536 ANTENNA__529__B
*1537 ANTENNA__530__A2
*1538 ANTENNA__530__B1
*1539 ANTENNA__531__B
*1540 ANTENNA__532__A2
*1541 ANTENNA__532__B1
*1542 ANTENNA__533__B
*1543 ANTENNA__534__A2
*1544 ANTENNA__534__B1
*1545 ANTENNA__535__B
*1546 ANTENNA__536__B1
*1547 ANTENNA__537__B
*1548 ANTENNA__538__A2
*1549 ANTENNA__538__B1
*1550 ANTENNA__539__B
*1551 ANTENNA__540__B1
*1552 ANTENNA__541__B
*1553 ANTENNA__542__A2
*1554 ANTENNA__542__B1
*1555 ANTENNA__543__B
*1556 ANTENNA__544__A2
*1557 ANTENNA__544__B1
*1558 ANTENNA__545__B
*1559 ANTENNA__546__A2
*1560 ANTENNA__546__B1
*1561 ANTENNA__547__B
*1562 ANTENNA__548__B1
*1563 ANTENNA__549__B
*1564 ANTENNA__550__A2
*1565 ANTENNA__550__B1
*1566 ANTENNA__551__B
*1567 ANTENNA__559__CLK
*1568 ANTENNA__560__CLK
*1569 ANTENNA__563__CLK
*1570 ANTENNA__565__CLK
*1571 ANTENNA__567__CLK
*1572 ANTENNA__568__CLK
*1573 ANTENNA__569__CLK
*1574 ANTENNA__574__CLK
*1575 ANTENNA__576__CLK
*1576 ANTENNA__578__CLK
*1577 ANTENNA__579__CLK
*1578 ANTENNA__583__CLK
*1579 ANTENNA__584__CLK
*1580 ANTENNA__588__CLK
*1581 ANTENNA__600__Q
*1582 ANTENNA__603__CLK
*1583 ANTENNA__615__CLK
*1584 ANTENNA__621__CLK
*1585 ANTENNA__632__Q
*1586 ANTENNA__633__CLK
*1587 ANTENNA__634__CLK
*1588 ANTENNA__638__CLK
*1589 ANTENNA__642__CLK
*1590 ANTENNA__659__CLK
*1591 ANTENNA__660__CLK
*1592 ANTENNA__665__CLK
*1593 ANTENNA__668__Q
*1594 ANTENNA__671__CLK
*1595 ANTENNA__672__CLK
*1596 ANTENNA__673__CLK
*1597 ANTENNA__678__CLK
*1598 ANTENNA__679__CLK
*1599 ANTENNA__684__CLK
*1600 ANTENNA__687__CLK
*1601 ANTENNA_clkbuf_0_wb_clk_i_A
*1602 ANTENNA_clkbuf_0_wb_clk_i_X
*1603 ANTENNA_clkbuf_4_0_0_wb_clk_i_A
*1604 ANTENNA_clkbuf_4_10_0_wb_clk_i_A
*1605 ANTENNA_clkbuf_4_11_0_wb_clk_i_A
*1606 ANTENNA_clkbuf_4_12_0_wb_clk_i_A
*1607 ANTENNA_clkbuf_4_13_0_wb_clk_i_A
*1608 ANTENNA_clkbuf_4_14_0_wb_clk_i_A
*1609 ANTENNA_clkbuf_4_15_0_wb_clk_i_A
*1610 ANTENNA_clkbuf_4_15_0_wb_clk_i_X
*1611 ANTENNA_clkbuf_4_1_0_wb_clk_i_A
*1612 ANTENNA_clkbuf_4_2_0_wb_clk_i_A
*1613 ANTENNA_clkbuf_4_3_0_wb_clk_i_A
*1614 ANTENNA_clkbuf_4_4_0_wb_clk_i_A
*1615 ANTENNA_clkbuf_4_5_0_wb_clk_i_A
*1616 ANTENNA_clkbuf_4_5_0_wb_clk_i_X
*1617 ANTENNA_clkbuf_4_6_0_wb_clk_i_A
*1618 ANTENNA_clkbuf_4_7_0_wb_clk_i_A
*1619 ANTENNA_clkbuf_4_7_0_wb_clk_i_X
*1620 ANTENNA_clkbuf_4_8_0_wb_clk_i_A
*1621 ANTENNA_clkbuf_4_8_0_wb_clk_i_X
*1622 ANTENNA_clkbuf_4_9_0_wb_clk_i_A
*1623 ANTENNA_clkload14_A
*1624 ANTENNA_clkload4_A
*1625 ANTENNA_clkload6_A
*1626 ANTENNA_clkload7_A
*1627 ANTENNA_fanout243_A
*1628 ANTENNA_fanout243_X
*1629 ANTENNA_fanout244_A
*1630 ANTENNA_fanout244_X
*1631 ANTENNA_fanout245_A
*1632 ANTENNA_fanout245_X
*1633 ANTENNA_fanout246_A
*1634 ANTENNA_fanout246_X
*1635 ANTENNA_fanout247_A
*1636 ANTENNA_fanout247_X
*1637 ANTENNA_fanout248_A
*1638 ANTENNA_fanout249_X
*1639 ANTENNA_fanout250_A
*1640 ANTENNA_fanout250_X
*1641 ANTENNA_fanout251_A
*1642 ANTENNA_fanout251_X
*1643 ANTENNA_fanout252_X
*1644 ANTENNA_fanout253_A
*1645 ANTENNA_fanout253_X
*1646 ANTENNA_fanout254_A
*1647 ANTENNA_fanout255_A
*1648 ANTENNA_fanout255_X
*1649 ANTENNA_fanout256_A
*1650 ANTENNA_fanout256_X
*1651 ANTENNA_fanout257_A
*1652 ANTENNA_fanout257_X
*1653 ANTENNA_fanout258_A
*1654 ANTENNA_fanout258_X
*1655 ANTENNA_fanout259_A
*1656 ANTENNA_fanout259_X
*1657 ANTENNA_fanout260_A
*1658 ANTENNA_fanout260_X
*1659 ANTENNA_fanout261_X
*1660 ANTENNA_fanout262_A
*1661 ANTENNA_fanout262_X
*1662 ANTENNA_fanout263_A
*1663 ANTENNA_fanout263_X
*1664 ANTENNA_fanout264_A
*1665 ANTENNA_fanout264_X
*1666 ANTENNA_fanout265_A
*1667 ANTENNA_fanout265_X
*1668 ANTENNA_fanout266_A
*1669 ANTENNA_fanout266_X
*1670 ANTENNA_fanout267_A
*1671 ANTENNA_fanout267_X
*1672 ANTENNA_fanout268_A
*1673 ANTENNA_fanout268_X
*1674 ANTENNA_fanout269_A
*1675 ANTENNA_fanout269_X
*1676 ANTENNA_fanout270_A
*1677 ANTENNA_fanout270_X
*1678 ANTENNA_fanout271_A
*1679 ANTENNA_fanout271_X
*1680 ANTENNA_fanout272_A
*1681 ANTENNA_fanout272_X
*1682 ANTENNA_fanout273_A
*1683 ANTENNA_fanout273_X
*1684 ANTENNA_fanout274_A
*1685 ANTENNA_fanout274_X
*1686 ANTENNA_fanout275_A
*1687 ANTENNA_fanout275_X
*1688 ANTENNA_hold100_A
*1689 ANTENNA_hold106_A
*1690 ANTENNA_hold109_A
*1691 ANTENNA_hold10_A
*1692 ANTENNA_hold112_A
*1693 ANTENNA_hold115_A
*1694 ANTENNA_hold118_A
*1695 ANTENNA_hold121_A
*1696 ANTENNA_hold135_A
*1697 ANTENNA_hold138_A
*1698 ANTENNA_hold13_A
*1699 ANTENNA_hold141_A
*1700 ANTENNA_hold152_A
*1701 ANTENNA_hold155_A
*1702 ANTENNA_hold157_A
*1703 ANTENNA_hold162_A
*1704 ANTENNA_hold167_A
*1705 ANTENNA_hold16_A
*1706 ANTENNA_hold172_A
*1707 ANTENNA_hold175_A
*1708 ANTENNA_hold176_X
*1709 ANTENNA_hold178_A
*1710 ANTENNA_hold181_A
*1711 ANTENNA_hold185_A
*1712 ANTENNA_hold193_A
*1713 ANTENNA_hold196_A
*1714 ANTENNA_hold19_A
*1715 ANTENNA_hold1_A
*1716 ANTENNA_hold201_A
*1717 ANTENNA_hold207_A
*1718 ANTENNA_hold210_A
*1719 ANTENNA_hold213_A
*1720 ANTENNA_hold226_A
*1721 ANTENNA_hold22_A
*1722 ANTENNA_hold231_A
*1723 ANTENNA_hold234_A
*1724 ANTENNA_hold237_A
*1725 ANTENNA_hold240_A
*1726 ANTENNA_hold248_A
*1727 ANTENNA_hold252_A
*1728 ANTENNA_hold255_A
*1729 ANTENNA_hold25_A
*1730 ANTENNA_hold261_A
*1731 ANTENNA_hold262_X
*1732 ANTENNA_hold266_A
*1733 ANTENNA_hold267_X
*1734 ANTENNA_hold272_A
*1735 ANTENNA_hold273_X
*1736 ANTENNA_hold281_A
*1737 ANTENNA_hold282_A
*1738 ANTENNA_hold283_A
*1739 ANTENNA_hold28_A
*1740 ANTENNA_hold315_A
*1741 ANTENNA_hold31_A
*1742 ANTENNA_hold34_A
*1743 ANTENNA_hold37_A
*1744 ANTENNA_hold40_A
*1745 ANTENNA_hold43_A
*1746 ANTENNA_hold46_A
*1747 ANTENNA_hold49_A
*1748 ANTENNA_hold4_A
*1749 ANTENNA_hold52_A